960
CELL: 26.860 26.860 37.753 90 90 90 #C27 H18 Cu3 N6 O15
Cu    1.274776   18.943821   18.876499
Cu   25.585224    7.916179   18.876499
Cu    7.916179    1.274776   18.876499
Cu   18.943821   25.585224   18.876499
Cu   14.704777    5.513823    0.000000
Cu   12.155225   21.346180    0.000000
Cu   21.346180   14.704777    0.000000
Cu    5.513823   12.155225    0.000000
Cu    1.667200   16.340014   18.876499
Cu   25.192801   10.519987   18.876499
Cu   10.519987    1.667200   18.876499
Cu   16.340014   25.192801   18.876499
Cu   15.097200    2.910013    0.000000
Cu   11.762800   23.949987    0.000000
Cu   23.949987   15.097200    0.000000
Cu    2.910013   11.762800    0.000000
Cu   10.136266    8.792165    5.503670
Cu   16.723736   18.067837   32.249329
Cu   16.723736   18.067837    5.503670
Cu   10.136266    8.792165   32.249329
Cu   18.067837   10.136266    5.503670
Cu    8.792165   16.723736   32.249329
Cu    8.792165   16.723736    5.503670
Cu   18.067837   10.136266   32.249329
Cu   23.566265   22.222164   24.380169
Cu    3.293735    4.637836   13.372830
Cu    3.293735    4.637836   24.380169
Cu   23.566265   22.222164   13.372830
Cu    4.637836   23.566265   24.380169
Cu   22.222164    3.293735   13.372830
Cu   22.222164    3.293735   24.380169
Cu    4.637836   23.566265   13.372830
Cu    9.061356    7.309788    7.403438
Cu   17.798645   19.550213   30.349560
Cu   17.798645   19.550213    7.403438
Cu    9.061356    7.309788   30.349560
Cu   19.550213    9.061356    7.403438
Cu    7.309788   17.798645   30.349560
Cu    7.309788   17.798645    7.403438
Cu   19.550213    9.061356   30.349560
Cu   22.491356   20.739788   26.279938
Cu    4.368645    6.120213   11.473061
Cu    4.368645    6.120213   26.279938
Cu   22.491356   20.739788   11.473061
Cu    6.120213   22.491356   26.279938
Cu   20.739788    4.368645   11.473061
Cu   20.739788    4.368645   26.279938
Cu    6.120213   22.491356   11.473061
 O    2.967224   16.707727   17.481148
 O   23.892776   10.152274   20.271851
 O   23.892776   10.152274   17.481148
 O    2.967224   16.707727   20.271851
 O   10.152274    2.967224   17.481148
 O   16.707727   23.892776   20.271851
 O   16.707727   23.892776   17.481148
 O   10.152274    2.967224   20.271851
 O   16.397224    3.277726   36.357647
 O   10.462776   23.582273    1.395351
 O   10.462776   23.582273   36.357647
 O   16.397224    3.277726    1.395351
 O   23.582273   16.397224   36.357647
 O    3.277726   10.462776    1.395351
 O    3.277726   10.462776   36.357647
 O   23.582273   16.397224    1.395351
 O    2.632549   18.922333   17.492476
 O   24.227451    7.937667   20.260523
 O   24.227451    7.937667   17.492476
 O    2.632549   18.922333   20.260523
 O    7.937667    2.632549   17.492476
 O   18.922333   24.227451   20.260523
 O   18.922333   24.227451   17.492476
 O    7.937667    2.632549   20.260523
 O   16.062550    5.492331   36.368977
 O   10.797452   21.367668    1.384024
 O   10.797452   21.367668   36.368977
 O   16.062550    5.492331    1.384024
 O   21.367668   16.062550   36.368977
 O    5.492331   10.797452    1.384024
 O    5.492331   10.797452   36.368977
 O   21.367668   16.062550    1.384024
 O    4.764695   21.789907   14.192862
 O   22.095306    5.070093   23.560137
 O   22.095306    5.070093   14.192862
 O    4.764695   21.789907   23.560137
 O    5.070093    4.764695   14.192862
 O   21.789907   22.095306   23.560137
 O   21.789907   22.095306   14.192862
 O    5.070093    4.764695   23.560137
 O   18.194695    8.359905   33.069359
 O    8.665305   18.500093    4.683637
 O    8.665305   18.500093   33.069359
 O   18.194695    8.359905    4.683637
 O   18.500093   18.194695   33.069359
 O    8.359905    8.665305    4.683637
 O    8.359905    8.665305   33.069359
 O   18.500093   18.194695    4.683637
 O    5.879117   20.858671   12.492468
 O   20.980885    6.001329   25.260530
 O   20.980885    6.001329   12.492468
 O    5.879117   20.858671   25.260530
 O    6.001329    5.879117   12.492468
 O   20.858671   20.980885   25.260530
 O   20.858671   20.980885   12.492468
 O    6.001329    5.879117   25.260530
 O   19.309116    7.428673   31.368967
 O    7.550883   19.431330    6.384031
 O    7.550883   19.431330   31.368967
 O   19.309116    7.428673    6.384031
 O   19.431330   19.309116   31.368967
 O    7.428673    7.550883    6.384031
 O    7.428673    7.550883   31.368967
 O   19.431330   19.309116    6.384031
 O    7.264019   15.998086    8.162198
 O   19.595982   10.861915   29.590801
 O   19.595982   10.861915    8.162198
 O    7.264019   15.998086   29.590801
 O   10.861915    7.264019    8.162198
 O   15.998086   19.595982   29.590801
 O   15.998086   19.595982    8.162198
 O   10.861915    7.264019   29.590801
 O   20.694019    2.568085   27.038696
 O    6.165981   24.291916   10.714301
 O    6.165981   24.291916   27.038696
 O   20.694019    2.568085   10.714301
 O   24.291916   20.694019   27.038696
 O    2.568085    6.165981   10.714301
 O    2.568085    6.165981   27.038696
 O   24.291916   20.694019   10.714301
 O    8.703446   15.163813    6.660761
 O   18.156553   11.696188   31.092237
 O   18.156553   11.696188    6.660761
 O    8.703446   15.163813   31.092237
 O   11.696188    8.703446    6.660761
 O   15.163813   18.156553   31.092237
 O   15.163813   18.156553    6.660761
 O   11.696188    8.703446   31.092237
 O   22.133448    1.733811   25.537260
 O    4.726554   25.126188   12.215738
 O    4.726554   25.126188   25.537260
 O   22.133448    1.733811   12.215738
 O   25.126188   22.133448   25.537260
 O    1.733811    4.726554   12.215738
 O    1.733811    4.726554   25.537260
 O   25.126188   22.133448   12.215738
 O    9.490712   10.346204    6.493138
 O   17.369287   16.513796   31.259859
 O   17.369287   16.513796    6.493138
 O    9.490712   10.346204   31.259859
 O   16.513796    9.490712    6.493138
 O   10.346204   17.369287   31.259859
 O   10.346204   17.369287    6.493138
 O   16.513796    9.490712   31.259859
 O   22.920713   23.776205   25.369638
 O    3.939288    3.083797   12.383361
 O    3.939288    3.083797   25.369638
 O   22.920713   23.776205   12.383361
 O    3.083797   22.920713   25.369638
 O   23.776205    3.939288   12.383361
 O   23.776205    3.939288   25.369638
 O    3.083797   22.920713   12.383361
 O    8.769522    9.062833    8.196176
 O   18.090477   17.797169   29.556822
 O   18.090477   17.797169    8.196176
 O    8.769522    9.062833   29.556822
 O   17.797169    8.769522    8.196176
 O    9.062833   18.090477   29.556822
 O    9.062833   18.090477    8.196176
 O   17.797169    8.769522   29.556822
 O   22.199524   22.492832   27.072676
 O    4.660478    4.367167   10.680324
 O    4.660478    4.367167   27.072676
 O   22.199524   22.492832   10.680324
 O    4.367167   22.199524   27.072676
 O   22.492832    4.660478   10.680324
 O   22.492832    4.660478   27.072676
 O    4.367167   22.199524   10.680324
 O    3.912428    7.670142   12.581564
 O   22.947573   19.189859   25.171434
 O   22.947573   19.189859   12.581564
 O    3.912428    7.670142   25.171434
 O   19.189859    3.912428   12.581564
 O    7.670142   22.947573   25.171434
 O    7.670142   22.947573   12.581564
 O   19.189859    3.912428   25.171434
 O   17.342428   21.100142   31.458063
 O    9.517573    5.759858    6.294935
 O    9.517573    5.759858   31.458063
 O   17.342428   21.100142    6.294935
 O    5.759858   17.342428   31.458063
 O   21.100142    9.517573    6.294935
 O   21.100142    9.517573   31.458063
 O    5.759858   17.342428    6.294935
 O    2.825403    6.387308   14.069033
 O   24.034597   20.472692   23.683964
 O   24.034597   20.472692   14.069033
 O    2.825403    6.387308   23.683964
 O   20.472692    2.825403   14.069033
 O    6.387308   24.034597   23.683964
 O    6.387308   24.034597   14.069033
 O   20.472692    2.825403   23.683964
 O   16.255404   19.817308   32.945534
 O   10.604596    7.042692    4.807467
 O   10.604596    7.042692   32.945534
 O   16.255404   19.817308    4.807467
 O    7.042692   16.255404   32.945534
 O   19.817308   10.604596    4.807467
 O   19.817308   10.604596   32.945534
 O    7.042692   16.255404    4.807467
 O    0.054794    8.319885   17.504555
 O   26.805206   18.540117   20.248444
 O   26.805206   18.540117   17.504555
 O    0.054794    8.319885   20.248444
 O   18.540117    0.054794   17.504555
 O    8.319885   26.805206   20.248444
 O    8.319885   26.805206   17.504555
 O   18.540117    0.054794   20.248444
 O   13.484796   21.749884   36.381054
 O   13.375206    5.110116    1.371944
 O   13.375206    5.110116   36.381054
 O   13.484796   21.749884    1.371944
 O    5.110116   13.484796   36.381054
 O   21.749884   13.375206    1.371944
 O   21.749884   13.375206   36.381054
 O    5.110116   13.484796    1.371944
 O   26.583611   10.529389   17.519657
 O    0.276389   16.330612   20.233341
 O    0.276389   16.330612   17.519657
 O   26.583611   10.529389   20.233341
 O   16.330612   26.583611   17.519657
 O   10.529389    0.276389   20.233341
 O   10.529389    0.276389   17.519657
 O   16.330612   26.583611   20.233341
 O   13.153611   23.959389   36.396156
 O   13.706390    2.900611    1.356842
 O   13.706390    2.900611   36.396156
 O   13.153611   23.959389    1.356842
 O    2.900611   13.153611   36.396156
 O   23.959389   13.706390    1.356842
 O   23.959389   13.706390   36.396156
 O    2.900611   13.153611    1.356842
 N    4.499050   14.205448   13.985221
 N   22.360950   12.654552   23.767776
 N   22.360950   12.654552   13.985221
 N    4.499050   14.205448   23.767776
 N   12.654552    4.499050   13.985221
 N   14.205448   22.360950   23.767776
 N   14.205448   22.360950   13.985221
 N   12.654552    4.499050   23.767776
 N   17.929050    0.775448   32.861721
 N    8.930950   26.084553    4.891278
 N    8.930950   26.084553   32.861721
 N   17.929050    0.775448    4.891278
 N   26.084553   17.929050   32.861721
 N    0.775448    8.930950    4.891278
 N    0.775448    8.930950   32.861721
 N   26.084553   17.929050    4.891278
 N    6.019326   14.034082   12.166281
 N   20.840675   12.825918   25.586716
 N   20.840675   12.825918   12.166281
 N    6.019326   14.034082   25.586716
 N   12.825918    6.019326   12.166281
 N   14.034082   20.840675   25.586716
 N   14.034082   20.840675   12.166281
 N   12.825918    6.019326   25.586716
 N   19.449326    0.604082   31.042782
 N    7.410675   26.255919    6.710218
 N    7.410675   26.255919   31.042782
 N   19.449326    0.604082    6.710218
 N   26.255919   19.449326   31.042782
 N    0.604082    7.410675    6.710218
 N    0.604082    7.410675   31.042782
 N   26.255919   19.449326    6.710218
 N    4.773022   12.126216   12.891893
 N   22.086979   14.733785   24.861103
 N   22.086979   14.733785   12.891893
 N    4.773022   12.126216   24.861103
 N   14.733785    4.773022   12.891893
 N   12.126216   22.086979   24.861103
 N   12.126216   22.086979   12.891893
 N   14.733785    4.773022   24.861103
 N   18.203022   25.556217   31.768394
 N    8.656979    1.303784    5.984606
 N    8.656979    1.303784   31.768394
 N   18.203022   25.556217    5.984606
 N    1.303784   18.203022   31.768394
 N   25.556217    8.656979    5.984606
 N   25.556217    8.656979   31.768394
 N    1.303784   18.203022    5.984606
 N    5.753412   16.002382   13.204112
 N   21.106588   10.857618   24.548885
 N   21.106588   10.857618   13.204112
 N    5.753412   16.002382   24.548885
 N   10.857618    5.753412   13.204112
 N   16.002382   21.106588   24.548885
 N   16.002382   21.106588   13.204112
 N   10.857618    5.753412   24.548885
 N   19.183413    2.572382   32.080612
 N    7.676588   24.287619    5.672388
 N    7.676588   24.287619   32.080612
 N   19.183413    2.572382    5.672388
 N   24.287619   19.183413   32.080612
 N    2.572382    7.676588    5.672388
 N    2.572382    7.676588   32.080612
 N   24.287619   19.183413    5.672388
 H    6.416854   16.220755   12.700109
 H   20.443146   10.639246   25.052889
 H   20.443146   10.639246   12.700109
 H    6.416854   16.220755   25.052889
 H   10.639246    6.416854   12.700109
 H   16.220755   20.443146   25.052889
 H   16.220755   20.443146   12.700109
 H   10.639246    6.416854   25.052889
 H   19.846855    2.790753   31.576609
 H    7.013146   24.069246    6.176391
 H    7.013146   24.069246   31.576609
 H   19.846855    2.790753    6.176391
 H   24.069246   19.846855   31.576609
 H    2.790753    7.013146    6.176391
 H    2.790753    7.013146   31.576609
 H   24.069246   19.846855    6.176391
 N    6.191230   11.966130   11.145818
 N   20.668772   14.893870   26.607180
 N   20.668772   14.893870   11.145818
 N    6.191230   11.966130   26.607180
 N   14.893870    6.191230   11.145818
 N   11.966130   20.668772   26.607180
 N   11.966130   20.668772   11.145818
 N   14.893870    6.191230   26.607180
 N   19.621229   25.396132   30.022318
 N    7.238770    1.463870    7.730681
 N    7.238770    1.463870   30.022318
 N   19.621229   25.396132    7.730681
 N    1.463870   19.621229   30.022318
 N   25.396132    7.238770    7.730681
 N   25.396132    7.238770   30.022318
 N    1.463870   19.621229    7.730681
 H    5.995152   11.133471   11.227741
 H   20.864849   15.726530   26.525257
 H   20.864849   15.726530   11.227741
 H    5.995152   11.133471   26.525257
 H   15.726530    5.995152   11.227741
 H   11.133471   20.864849   26.525257
 H   11.133471   20.864849   11.227741
 H   15.726530    5.995152   26.525257
 H   19.425152   24.563471   30.104240
 H    7.434848    2.296530    7.648757
 H    7.434848    2.296530   30.104240
 H   19.425152   24.563471    7.648757
 H    2.296530   19.425152   30.104240
 H   24.563471    7.434848    7.648757
 H   24.563471    7.434848   30.104240
 H    2.296530   19.425152    7.648757
 N    3.306466   12.400187   14.650050
 N   23.553535   14.459812   23.102949
 N   23.553535   14.459812   14.650050
 N    3.306466   12.400187   23.102949
 N   14.459812    3.306466   14.650050
 N   12.400187   23.553535   23.102949
 N   12.400187   23.553535   14.650050
 N   14.459812    3.306466   23.102949
 N   16.736465   25.830189   33.526550
 N   10.123535    1.029812    4.226449
 N   10.123535    1.029812   33.526550
 N   16.736465   25.830189    4.226449
 N    1.029812   16.736465   33.526550
 N   25.830189   10.123535    4.226449
 N   25.830189   10.123535   33.526550
 N    1.029812   16.736465    4.226449
 H    2.957286   12.970695   15.188031
 H   23.902714   13.889306   22.564966
 H   23.902714   13.889306   15.188031
 H    2.957286   12.970695   22.564966
 H   13.889306    2.957286   15.188031
 H   12.970695   23.902714   22.564966
 H   12.970695   23.902714   15.188031
 H   13.889306    2.957286   22.564966
 H   16.387287   26.400696   34.064529
 H   10.472714    0.459306    3.688468
 H   10.472714    0.459306   34.064529
 H   16.387287   26.400696    3.688468
 H    0.459306   16.387287   34.064529
 H   26.400696   10.472714    3.688468
 H   26.400696   10.472714   34.064529
 H    0.459306   16.387287    3.688468
 C    5.398860   14.703164   13.138043
 C   21.461142   12.156837   24.614956
 C   21.461142   12.156837   13.138043
 C    5.398860   14.703164   24.614956
 C   12.156837    5.398860   13.138043
 C   14.703164   21.461142   24.614956
 C   14.703164   21.461142   13.138043
 C   12.156837    5.398860   24.614956
 C   18.828859    1.273164   32.014542
 C    8.031140   25.586836    5.738456
 C    8.031140   25.586836   32.014542
 C   18.828859    1.273164    5.738456
 C   25.586836   18.828859   32.014542
 C    1.273164    8.031140    5.738456
 C    1.273164    8.031140   32.014542
 C   25.586836   18.828859    5.738456
 C    5.680890   12.766559   12.097570
 C   21.179111   14.093442   25.655428
 C   21.179111   14.093442   12.097570
 C    5.680890   12.766559   25.655428
 C   14.093442    5.680890   12.097570
 C   12.766559   21.179111   25.655428
 C   12.766559   21.179111   12.097570
 C   14.093442    5.680890   25.655428
 C   19.110889   26.196560   30.974070
 C    7.749111    0.663442    6.778929
 C    7.749111    0.663442   30.974070
 C   19.110889   26.196560    6.778929
 C    0.663442   19.110889   30.974070
 C   26.196560    7.749111    6.778929
 C   26.196560    7.749111   30.974070
 C    0.663442   19.110889    6.778929
 C    4.233136   12.922346   13.800986
 C   22.626865   13.937655   23.952013
 C   22.626865   13.937655   13.800986
 C    4.233136   12.922346   23.952013
 C   13.937655    4.233136   13.800986
 C   12.922346   22.626865   23.952013
 C   12.922346   22.626865   13.800986
 C   13.937655    4.233136   23.952013
 C   17.663136   26.352346   32.677486
 C    9.196864    0.507654    5.075513
 C    9.196864    0.507654   32.677486
 C   17.663136   26.352346    5.075513
 C    0.507654   17.663136   32.677486
 C   26.352346    9.196864    5.075513
 C   26.352346    9.196864   32.677486
 C    0.507654   17.663136    5.075513
 C    5.218898   17.066307   13.965212
 C   21.641102    9.793693   23.787786
 C   21.641102    9.793693   13.965212
 C    5.218898   17.066307   23.787786
 C    9.793693    5.218898   13.965212
 C   17.066307   21.641102   23.787786
 C   17.066307   21.641102   13.965212
 C    9.793693    5.218898   23.787786
 C   18.648899    3.636308   32.841709
 C    8.211102   23.223694    4.911287
 C    8.211102   23.223694   32.841709
 C   18.648899    3.636308    4.911287
 C   23.223694   18.648899   32.841709
 C    3.636308    8.211102    4.911287
 C    3.636308    8.211102   32.841709
 C   23.223694   18.648899    4.911287
 C    4.490992   16.908102   15.141595
 C   22.369009    9.951899   22.611403
 C   22.369009    9.951899   15.141595
 C    4.490992   16.908102   22.611403
 C    9.951899    4.490992   15.141595
 C   16.908102   22.369009   22.611403
 C   16.908102   22.369009   15.141595
 C    9.951899    4.490992   22.611403
 C   17.920992    3.478102   34.018093
 C    8.939008   23.381899    3.734904
 C    8.939008   23.381899   34.018093
 C   17.920992    3.478102    3.734904
 C   23.381899   17.920992   34.018093
 C    3.478102    8.939008    3.734904
 C    3.478102    8.939008   34.018093
 C   23.381899   17.920992    3.734904
 H    4.319088   16.056910   15.474955
 H   22.540913   10.803092   22.278044
 H   22.540913   10.803092   15.474955
 H    4.319088   16.056910   22.278044
 H   10.803092    4.319088   15.474955
 H   16.056910   22.540913   22.278044
 H   16.056910   22.540913   15.474955
 H   10.803092    4.319088   22.278044
 H   17.749088    2.626909   34.351452
 H    9.110912   24.233091    3.401545
 H    9.110912   24.233091   34.351452
 H   17.749088    2.626909    3.401545
 H   24.233091   17.749088   34.351452
 H    2.626909    9.110912    3.401545
 H    2.626909    9.110912   34.351452
 H   24.233091   17.749088    3.401545
 C    4.023360   18.024940   15.813599
 C   22.836641    8.835060   21.939402
 C   22.836641    8.835060   15.813599
 C    4.023360   18.024940   21.939402
 C    8.835060    4.023360   15.813599
 C   18.024940   22.836641   21.939402
 C   18.024940   22.836641   15.813599
 C    8.835060    4.023360   21.939402
 C   17.453360    4.594940   34.690098
 C    9.406641   22.265060    3.062901
 C    9.406641   22.265060   34.690098
 C   17.453360    4.594940    3.062901
 C   22.265060   17.453360   34.690098
 C    4.594940    9.406641    3.062901
 C    4.594940    9.406641   34.690098
 C   22.265060   17.453360    3.062901
 C    4.291153   19.305626   15.334890
 C   22.568848    7.554375   22.418106
 C   22.568848    7.554375   15.334890
 C    4.291153   19.305626   22.418106
 C    7.554375    4.291153   15.334890
 C   19.305626   22.568848   22.418106
 C   19.305626   22.568848   15.334890
 C    7.554375    4.291153   22.418106
 C   17.721153    5.875625   34.211391
 C    9.138846   20.984375    3.541609
 C    9.138846   20.984375   34.211391
 C   17.721153    5.875625    3.541609
 C   20.984375   17.721153   34.211391
 C    5.875625    9.138846    3.541609
 C    5.875625    9.138846   34.211391
 C   20.984375   17.721153    3.541609
 H    3.977966   20.053677   15.792079
 H   22.882034    6.806325   21.960918
 H   22.882034    6.806325   15.792079
 H    3.977966   20.053677   21.960918
 H    6.806325    3.977966   15.792079
 H   20.053677   22.882034   21.960918
 H   20.053677   22.882034   15.792079
 H    6.806325    3.977966   21.960918
 H   17.407967    6.623674   34.668579
 H    9.452034   20.236324    3.084420
 H    9.452034   20.236324   34.668579
 H   17.407967    6.623674    3.084420
 H   20.236324   17.407967   34.668579
 H    6.623674    9.452034    3.084420
 H    6.623674    9.452034   34.668579
 H   20.236324   17.407967    3.084420
 C    5.027386   19.453892   14.173231
 C   21.832613    7.406108   23.579769
 C   21.832613    7.406108   14.173231
 C    5.027386   19.453892   23.579769
 C    7.406108    5.027386   14.173231
 C   19.453892   21.832613   23.579769
 C   19.453892   21.832613   14.173231
 C    7.406108    5.027386   23.579769
 C   18.457388    6.023892   33.049728
 C    8.402614   20.836109    4.703269
 C    8.402614   20.836109   33.049728
 C   18.457388    6.023892    4.703269
 C   20.836109   18.457388   33.049728
 C    6.023892    8.402614    4.703269
 C    6.023892    8.402614   33.049728
 C   20.836109   18.457388    4.703269
 C    5.500928   18.339739   13.501227
 C   21.359072    8.520262   24.251772
 C   21.359072    8.520262   13.501227
 C    5.500928   18.339739   24.251772
 C    8.520262    5.500928   13.501227
 C   18.339739   21.359072   24.251772
 C   18.339739   21.359072   13.501227
 C    8.520262    5.500928   24.251772
 C   18.930929    4.909740   32.377728
 C    7.929072   21.950262    5.375272
 C    7.929072   21.950262   32.377728
 C   18.930929    4.909740    5.375272
 C   21.950262   18.930929   32.377728
 C    4.909740    7.929072    5.375272
 C    4.909740    7.929072   32.377728
 C   21.950262   18.930929    5.375272
 H    6.011268   18.447449   12.730310
 H   20.848732    8.412552   25.022688
 H   20.848732    8.412552   12.730310
 H    6.011268   18.447449   25.022688
 H    8.412552    6.011268   12.730310
 H   18.447449   20.848732   25.022688
 H   18.447449   20.848732   12.730310
 H    8.412552    6.011268   25.022688
 H   19.441269    5.017448   31.606810
 H    7.418732   21.842552    6.146189
 H    7.418732   21.842552   31.606810
 H   19.441269    5.017448    6.146189
 H   21.842552   19.441269   31.606810
 H    5.017448    7.418732    6.146189
 H    5.017448    7.418732   31.606810
 H   21.842552   19.441269    6.146189
 C    3.154170   17.866467   17.034908
 C   23.705832    8.993534   20.718088
 C   23.705832    8.993534   17.034908
 C    3.154170   17.866467   20.718088
 C    8.993534    3.154170   17.034908
 C   17.866467   23.705832   20.718088
 C   17.866467   23.705832   17.034908
 C    8.993534    3.154170   20.718088
 C   16.584169    4.436465   35.911407
 C   10.275830   22.423534    1.841591
 C   10.275830   22.423534   35.911407
 C   16.584169    4.436465    1.841591
 C   22.423534   16.584169   35.911407
 C    4.436465   10.275830    1.841591
 C    4.436465   10.275830   35.911407
 C   22.423534   16.584169    1.841591
 C    5.249518   20.797697   13.588814
 C   21.610483    6.062303   24.164185
 C   21.610483    6.062303   13.588814
 C    5.249518   20.797697   24.164185
 C    6.062303    5.249518   13.588814
 C   20.797697   21.610483   24.164185
 C   20.797697   21.610483   13.588814
 C    6.062303    5.249518   24.164185
 C   18.679518    7.367698   32.465313
 C    8.180482   19.492304    5.287685
 C    8.180482   19.492304   32.465313
 C   18.679518    7.367698    5.287685
 C   19.492304   18.679518   32.465313
 C    7.367698    8.180482    5.287685
 C    7.367698    8.180482   32.465313
 C   19.492304   18.679518    5.287685
 C    6.997031   12.277706   10.038145
 C   19.862970   14.582294   27.714853
 C   19.862970   14.582294   10.038145
 C    6.997031   12.277706   27.714853
 C   14.582294    6.997031   10.038145
 C   12.277706   19.862970   27.714853
 C   12.277706   19.862970   10.038145
 C   14.582294    6.997031   27.714853
 C   20.427031   25.707708   28.914644
 C    6.432970    1.152294    8.838354
 C    6.432970    1.152294   28.914644
 C   20.427031   25.707708    8.838354
 C    1.152294   20.427031   28.914644
 C   25.707708    6.432970    8.838354
 C   25.707708    6.432970   28.914644
 C    1.152294   20.427031    8.838354
 C    7.128644   13.543080    9.494880
 C   19.731358   13.316920   28.258120
 C   19.731358   13.316920    9.494880
 C    7.128644   13.543080   28.258120
 C   13.316920    7.128644    9.494880
 C   13.543080   19.731358   28.258120
 C   13.543080   19.731358    9.494880
 C   13.316920    7.128644   28.258120
 C   20.558643    0.113080   28.371378
 C    6.301356   26.746920    9.381619
 C    6.301356   26.746920   28.371378
 C   20.558643    0.113080    9.381619
 C   26.746920   20.558643   28.371378
 C    0.113080    6.301356    9.381619
 C    0.113080    6.301356   28.371378
 C   26.746920   20.558643    9.381619
 H    6.720372   14.270719    9.902612
 H   20.139627   12.589282   27.850386
 H   20.139627   12.589282    9.902612
 H    6.720372   14.270719   27.850386
 H   12.589282    6.720372    9.902612
 H   14.270719   20.139627   27.850386
 H   14.270719   20.139627    9.902612
 H   12.589282    6.720372   27.850386
 H   20.150373    0.840720   28.779112
 H    6.709628   26.019283    8.973887
 H    6.709628   26.019283   28.779112
 H   20.150373    0.840720    8.973887
 H   26.019283   20.150373   28.779112
 H    0.840720    6.709628    8.973887
 H    0.840720    6.709628   28.779112
 H   26.019283   20.150373    8.973887
 C    7.881261   13.721163    8.321894
 C   18.978741   13.138838   29.431105
 C   18.978741   13.138838    8.321894
 C    7.881261   13.721163   29.431105
 C   13.138838    7.881261    8.321894
 C   13.721163   18.978741   29.431105
 C   13.721163   18.978741    8.321894
 C   13.138838    7.881261   29.431105
 C   21.311260    0.291161   27.198393
 C    5.548739   26.568838   10.554605
 C    5.548739   26.568838   27.198393
 C   21.311260    0.291161   10.554605
 C   26.568838   21.311260   27.198393
 C    0.291161    5.548739   10.554605
 C    0.291161    5.548739   27.198393
 C   26.568838   21.311260   10.554605
 C    8.489640   12.630110    7.739365
 C   18.370361   14.229892   30.013634
 C   18.370361   14.229892    7.739365
 C    8.489640   12.630110   30.013634
 C   14.229892    8.489640    7.739365
 C   12.630110   18.370361   30.013634
 C   12.630110   18.370361    7.739365
 C   14.229892    8.489640   30.013634
 C   21.919640   26.060108   26.615864
 C    4.940360    0.799891   11.137136
 C    4.940360    0.799891   26.615864
 C   21.919640   26.060108   11.137136
 C    0.799891   21.919640   26.615864
 C   26.060108    4.940360   11.137136
 C   26.060108    4.940360   26.615864
 C    0.799891   21.919640   11.137136
 H    8.998100   12.745070    6.969203
 H   17.861900   14.114930   30.783794
 H   17.861900   14.114930    6.969203
 H    8.998100   12.745070   30.783794
 H   14.114930    8.998100    6.969203
 H   12.745070   17.861900   30.783794
 H   12.745070   17.861900    6.969203
 H   14.114930    8.998100   30.783794
 H   22.428101   26.175070   25.845703
 H    4.431900    0.684930   11.907296
 H    4.431900    0.684930   25.845703
 H   22.428101   26.175070   11.907296
 H    0.684930   22.428101   25.845703
 H   26.175070    4.431900   11.907296
 H   26.175070    4.431900   25.845703
 H    0.684930   22.428101   11.907296
 C    8.354535   11.375748    8.278478
 C   18.505465   15.484254   29.474522
 C   18.505465   15.484254    8.278478
 C    8.354535   11.375748   29.474522
 C   15.484254    8.354535    8.278478
 C   11.375748   18.505465   29.474522
 C   11.375748   18.505465    8.278478
 C   15.484254    8.354535   29.474522
 C   21.784536   24.805746   27.154976
 C    5.075465    2.054253   10.598022
 C    5.075465    2.054253   27.154976
 C   21.784536   24.805746   10.598022
 C    2.054253   21.784536   27.154976
 C   24.805746    5.075465   10.598022
 C   24.805746    5.075465   27.154976
 C    2.054253   21.784536   10.598022
 C    7.622869   11.200083    9.433342
 C   19.237133   15.659917   28.319656
 C   19.237133   15.659917    9.433342
 C    7.622869   11.200083   28.319656
 C   15.659917    7.622869    9.433342
 C   11.200083   19.237133   28.319656
 C   11.200083   19.237133    9.433342
 C   15.659917    7.622869   28.319656
 C   21.052868   24.630085   28.309841
 C    5.807132    2.229917    9.443157
 C    5.807132    2.229917   28.309841
 C   21.052868   24.630085    9.443157
 C    2.229917   21.052868   28.309841
 C   24.630085    5.807132    9.443157
 C   24.630085    5.807132   28.309841
 C    2.229917   21.052868    9.443157
 H    7.547660   10.351844    9.808228
 H   19.312340   16.508156   27.944771
 H   19.312340   16.508156    9.808228
 H    7.547660   10.351844   27.944771
 H   16.508156    7.547660    9.808228
 H   10.351844   19.312340   27.944771
 H   10.351844   19.312340    9.808228
 H   16.508156    7.547660   27.944771
 H   20.977661   23.781845   28.684727
 H    5.882340    3.078156    9.068271
 H    5.882340    3.078156   28.684727
 H   20.977661   23.781845    9.068271
 H    3.078156   20.977661   28.684727
 H   23.781845    5.882340    9.068271
 H   23.781845    5.882340   28.684727
 H    3.078156   20.977661    9.068271
 C    7.956738   15.066581    7.678960
 C   18.903263   11.793420   30.074038
 C   18.903263   11.793420    7.678960
 C    7.956738   15.066581   30.074038
 C   11.793420    7.956738    7.678960
 C   15.066581   18.903263   30.074038
 C   15.066581   18.903263    7.678960
 C   11.793420    7.956738   30.074038
 C   21.386738    1.636580   26.555460
 C    5.473263   25.223421   11.197538
 C    5.473263   25.223421   26.555460
 C   21.386738    1.636580   11.197538
 C   25.223421   21.386738   26.555460
 C    1.636580    5.473263   11.197538
 C    1.636580    5.473263   26.555460
 C   25.223421   21.386738   11.197538
 C    8.927996   10.170002    7.611004
 C   17.932005   16.689997   30.141993
 C   17.932005   16.689997    7.611004
 C    8.927996   10.170002   30.141993
 C   16.689997    8.927996    7.611004
 C   10.170002   17.932005   30.141993
 C   10.170002   17.932005    7.611004
 C   16.689997    8.927996   30.141993
 C   22.357996   23.600004   26.487505
 C    4.502005    3.259998   11.265494
 C    4.502005    3.259998   26.487505
 C   22.357996   23.600004   11.265494
 C    3.259998   22.357996   26.487505
 C   23.600004    4.502005   11.265494
 C   23.600004    4.502005   26.487505
 C    3.259998   22.357996   11.265494
 C    2.822986   11.075990   14.796155
 C   24.037016   15.784011   22.956844
 C   24.037016   15.784011   14.796155
 C    2.822986   11.075990   22.956844
 C   15.784011    2.822986   14.796155
 C   11.075990   24.037016   22.956844
 C   11.075990   24.037016   14.796155
 C   15.784011    2.822986   22.956844
 C   16.252985   24.505991   33.672653
 C   10.607014    2.354010    4.080344
 C   10.607014    2.354010   33.672653
 C   16.252985   24.505991    4.080344
 C    2.354010   16.252985   33.672653
 C   24.505991   10.607014    4.080344
 C   24.505991   10.607014   33.672653
 C    2.354010   16.252985    4.080344
 C    3.274234    9.973387   14.085644
 C   23.585766   16.886614   23.667353
 C   23.585766   16.886614   14.085644
 C    3.274234    9.973387   23.667353
 C   16.886614    3.274234   14.085644
 C    9.973387   23.585766   23.667353
 C    9.973387   23.585766   14.085644
 C   16.886614    3.274234   23.667353
 C   16.704235   23.403387   32.962143
 C   10.155766    3.456614    4.790855
 C   10.155766    3.456614   32.962143
 C   16.704235   23.403387    4.790855
 C    3.456614   16.704235   32.962143
 C   23.403387   10.155766    4.790855
 C   23.403387   10.155766   32.962143
 C    3.456614   16.704235    4.790855
 H    3.902758   10.083244   13.406090
 H   22.957241   16.776756   24.346907
 H   22.957241   16.776756   13.406090
 H    3.902758   10.083244   24.346907
 H   16.776756    3.902758   13.406090
 H   10.083244   22.957241   24.346907
 H   10.083244   22.957241   13.406090
 H   16.776756    3.902758   24.346907
 H   17.332760   23.513245   32.282589
 H    9.527243    3.346756    5.470409
 H    9.527243    3.346756   32.282589
 H   17.332760   23.513245    5.470409
 H    3.346756   17.332760   32.282589
 H   23.513245    9.527243    5.470409
 H   23.513245    9.527243   32.282589
 H    3.346756   17.332760    5.470409
 C    2.788605    8.707206   14.386535
 C   24.071394   18.152794   23.366463
 C   24.071394   18.152794   14.386535
 C    2.788605    8.707206   23.366463
 C   18.152794    2.788605   14.386535
 C    8.707206   24.071394   23.366463
 C    8.707206   24.071394   14.386535
 C   18.152794    2.788605   23.366463
 C   16.218607   22.137207   33.263035
 C   10.641396    4.722794    4.489964
 C   10.641396    4.722794   33.263035
 C   16.218607   22.137207    4.489964
 C    4.722794   16.218607   33.263035
 C   22.137207   10.641396    4.489964
 C   22.137207   10.641396   33.263035
 C    4.722794   16.218607    4.489964
 C    1.816273    8.535840   15.391143
 C   25.043728   18.324160   22.361855
 C   25.043728   18.324160   15.391143
 C    1.816273    8.535840   22.361855
 C   18.324160    1.816273   15.391143
 C    8.535840   25.043728   22.361855
 C    8.535840   25.043728   15.391143
 C   18.324160    1.816273   22.361855
 C   15.246273   21.965841   34.267643
 C   11.613727    4.894161    3.485357
 C   11.613727    4.894161   34.267643
 C   15.246273   21.965841    3.485357
 C    4.894161   15.246273   34.267643
 C   21.965841   11.613727    3.485357
 C   21.965841   11.613727   34.267643
 C    4.894161   15.246273    3.485357
 H    1.488044    7.690018   15.595764
 H   25.371956   19.169983   22.157234
 H   25.371956   19.169983   15.595764
 H    1.488044    7.690018   22.157234
 H   19.169983    1.488044   15.595764
 H    7.690018   25.371956   22.157234
 H    7.690018   25.371956   15.595764
 H   19.169983    1.488044   22.157234
 H   14.918045   21.120018   34.472263
 H   11.941956    5.739982    3.280735
 H   11.941956    5.739982   34.472263
 H   14.918045   21.120018    3.280735
 H    5.739982   14.918045   34.472263
 H   21.120018   11.941956    3.280735
 H   21.120018   11.941956   34.472263
 H    5.739982   14.918045    3.280735
 C    1.355356    9.657245   16.073339
 C   25.504646   17.202757   21.679659
 C   25.504646   17.202757   16.073339
 C    1.355356    9.657245   21.679659
 C   17.202757    1.355356   16.073339
 C    9.657245   25.504646   21.679659
 C    9.657245   25.504646   16.073339
 C   17.202757    1.355356   21.679659
 C   14.785356   23.087244   34.949841
 C   12.074644    3.772756    2.803161
 C   12.074644    3.772756   34.949841
 C   14.785356   23.087244    2.803161
 C    3.772756   14.785356   34.949841
 C   23.087244   12.074644    2.803161
 C   23.087244   12.074644   34.949841
 C    3.772756   14.785356    2.803161
 C    1.864084   10.903280   15.790946
 C   24.995916   15.956719   21.962051
 C   24.995916   15.956719   15.790946
 C    1.864084   10.903280   21.962051
 C   15.956719    1.864084   15.790946
 C   10.903280   24.995916   21.962051
 C   10.903280   24.995916   15.790946
 C   15.956719    1.864084   21.962051
 C   15.294085   24.333281   34.667446
 C   11.565916    2.526720    3.085553
 C   11.565916    2.526720   34.667446
 C   15.294085   24.333281    3.085553
 C    2.526720   15.294085   34.667446
 C   24.333281   11.565916    3.085553
 C   24.333281   11.565916   34.667446
 C    2.526720   15.294085    3.085553
 H    1.563252   11.641125   16.271542
 H   25.296749   15.218876   21.481457
 H   25.296749   15.218876   16.271542
 H    1.563252   11.641125   21.481457
 H   15.218876    1.563252   16.271542
 H   11.641125   25.296749   21.481457
 H   11.641125   25.296749   16.271542
 H   15.218876    1.563252   21.481457
 H   14.993253   25.071125   35.148041
 H   11.866748    1.788876    2.604957
 H   11.866748    1.788876   35.148041
 H   14.993253   25.071125    2.604957
 H    1.788876   14.993253   35.148041
 H   25.071125   11.866748    2.604957
 H   25.071125   11.866748   35.148041
 H    1.788876   14.993253    2.604957
 C    3.216754    7.509251   13.628833
 C   23.643248   19.350750   24.124166
 C   23.643248   19.350750   13.628833
 C    3.216754    7.509251   24.124166
 C   19.350750    3.216754   13.628833
 C    7.509251   23.643248   24.124166
 C    7.509251   23.643248   13.628833
 C   19.350750    3.216754   24.124166
 C   16.646753   20.939251   32.505333
 C   10.213246    5.920750    5.247667
 C   10.213246    5.920750   32.505333
 C   16.646753   20.939251    5.247667
 C    5.920750   16.646753   32.505333
 C   20.939251   10.213246    5.247667
 C   20.939251   10.213246   32.505333
 C    5.920750   16.646753    5.247667
 C    0.308084    9.475403   17.110790
 C   26.551916   17.384600   20.642206
 C   26.551916   17.384600   17.110790
 C    0.308084    9.475403   20.642206
 C   17.384600    0.308084   17.110790
 C    9.475403   26.551916   20.642206
 C    9.475403   26.551916   17.110790
 C   17.384600    0.308084   20.642206
 C   13.738085   22.905401   35.987293
 C   13.121917    3.954598    1.765708
 C   13.121917    3.954598   35.987293
 C   13.738085   22.905401    1.765708
 C    3.954598   13.738085   35.987293
 C   22.905401   13.121917    1.765708
 C   22.905401   13.121917   35.987293
 C    3.954598   13.738085    1.765708
