672
CELL: 26.30340 26.30340 26.30340 90 90 90             #doi: 10.1107/S0021889812050935
Cu         5.68469       20.61871        0.00000
Cu        20.61871        5.68469        0.00000
Cu        20.61871       20.61871        0.00000
Cu         5.68469        5.68469        0.00000
Cu        -0.00000        5.68469       20.61871
Cu        -0.00000       20.61871        5.68469
Cu        -0.00000       20.61871       20.61871
Cu        -0.00000        5.68469        5.68469
Cu        20.61871       -0.00000        5.68469
Cu         5.68469       -0.00000       20.61871
Cu        20.61871       -0.00000       20.61871
Cu         5.68469       -0.00000        5.68469
Cu         5.68469        7.46701       13.15170
Cu        20.61871       18.83639       13.15170
Cu        20.61871        7.46701       13.15170
Cu         5.68469       18.83639       13.15170
Cu        -0.00000       18.83639        7.46701
Cu        -0.00000        7.46701       18.83639
Cu        -0.00000        7.46701        7.46701
Cu        -0.00000       18.83639       18.83639
Cu        20.61871       13.15170       18.83639
Cu         5.68469       13.15170        7.46701
Cu        20.61871       13.15170        7.46701
Cu         5.68469       13.15170       18.83639
Cu        18.83639       20.61871       13.15170
Cu         7.46701        5.68469       13.15170
Cu         7.46701       20.61871       13.15170
Cu        18.83639        5.68469       13.15170
Cu        13.15170        5.68469        7.46701
Cu        13.15170       20.61871       18.83639
Cu        13.15170       20.61871        7.46701
Cu        13.15170        5.68469       18.83639
Cu         7.46701       -0.00000       18.83639
Cu        18.83639       -0.00000        7.46701
Cu         7.46701       -0.00000        7.46701
Cu        18.83639       -0.00000       18.83639
Cu        18.83639        7.46701        0.00000
Cu         7.46701       18.83639        0.00000
Cu         7.46701        7.46701        0.00000
Cu        18.83639       18.83639        0.00000
Cu        13.15170       18.83639       20.61871
Cu        13.15170        7.46701        5.68469
Cu        13.15170        7.46701       20.61871
Cu        13.15170       18.83639        5.68469
Cu         7.46701       13.15170        5.68469
Cu        18.83639       13.15170       20.61871
Cu         7.46701       13.15170       20.61871
Cu        18.83639       13.15170        5.68469
O          4.94057       19.51791       25.01348
O         21.36283        6.78549       25.01348
O         21.36283       19.51791        1.28992
O          4.94057        6.78549        1.28992
O         25.01348        4.94057       19.51791
O         25.01348       21.36283        6.78549
O          1.28992       21.36283       19.51791
O          1.28992        4.94057        6.78549
O         19.51791       25.01348        4.94057
O          6.78549       25.01348       21.36283
O         19.51791        1.28992       21.36283
O          6.78549        1.28992        4.94057
O         19.51791        4.94057        1.28992
O          6.78549       21.36283        1.28992
O         19.51791       21.36283       25.01348
O          6.78549        4.94057       25.01348
O          4.94057       25.01348        6.78549
O         21.36283       25.01348       19.51791
O         21.36283        1.28992        6.78549
O          4.94057        1.28992       19.51791
O         25.01348       19.51791       21.36283
O         25.01348        6.78549        4.94057
O          1.28992       19.51791        4.94057
O          1.28992        6.78549       21.36283
O         21.36283        6.78549        1.28992
O          4.94057       19.51791        1.28992
O          4.94057        6.78549       25.01348
O         21.36283       19.51791       25.01348
O          1.28992       21.36283        6.78549
O          1.28992        4.94057       19.51791
O         25.01348        4.94057        6.78549
O         25.01348       21.36283       19.51791
O          6.78549        1.28992       21.36283
O         19.51791        1.28992        4.94057
O          6.78549       25.01348        4.94057
O         19.51791       25.01348       21.36283
O          6.78549       21.36283       25.01348
O         19.51791        4.94057       25.01348
O          6.78549        4.94057        1.28992
O         19.51791       21.36283        1.28992
O         21.36283        1.28992       19.51791
O          4.94057        1.28992        6.78549
O          4.94057       25.01348       19.51791
O         21.36283       25.01348        6.78549
O          1.28992        6.78549        4.94057
O          1.28992       19.51791       21.36283
O         25.01348        6.78549       21.36283
O         25.01348       19.51791        4.94057
O          4.94057        6.36621       11.86178
O         21.36283       19.93719       11.86178
O         21.36283        6.36621       14.44162
O          4.94057       19.93719       14.44162
O         25.01348       18.09227        6.36621
O         25.01348        8.21113       19.93719
O          1.28992        8.21113        6.36621
O          1.28992       18.09227       19.93719
O         19.51791       11.86178       18.09227
O          6.78549       11.86178        8.21113
O         19.51791       14.44162        8.21113
O          6.78549       14.44162       18.09227
O         19.51791       18.09227       14.44162
O          6.78549        8.21113       14.44162
O         19.51791        8.21113       11.86178
O          6.78549       18.09227       11.86178
O          4.94057       11.86178       19.93719
O         21.36283       11.86178        6.36621
O         21.36283       14.44162       19.93719
O          4.94057       14.44162        6.36621
O         25.01348        6.36621        8.21113
O         25.01348       19.93719       18.09227
O          1.28992        6.36621       18.09227
O          1.28992       19.93719        8.21113
O         21.36283       19.93719       14.44162
O          4.94057        6.36621       14.44162
O          4.94057       19.93719       11.86178
O         21.36283        6.36621       11.86178
O          1.28992        8.21113       19.93719
O          1.28992       18.09227        6.36621
O         25.01348       18.09227       19.93719
O         25.01348        8.21113        6.36621
O          6.78549       14.44162        8.21113
O         19.51791       14.44162       18.09227
O          6.78549       11.86178       18.09227
O         19.51791       11.86178        8.21113
O          6.78549        8.21113       11.86178
O         19.51791       18.09227       11.86178
O          6.78549       18.09227       14.44162
O         19.51791        8.21113       14.44162
O         21.36283       14.44162        6.36621
O          4.94057       14.44162       19.93719
O          4.94057       11.86178        6.36621
O         21.36283       11.86178       19.93719
O          1.28992       19.93719       18.09227
O          1.28992        6.36621        8.21113
O         25.01348       19.93719        8.21113
O         25.01348        6.36621       18.09227
O         18.09227       19.51791       11.86178
O          8.21113        6.78549       11.86178
O          8.21113       19.51791       14.44162
O         18.09227        6.78549       14.44162
O         11.86178        4.94057        6.36621
O         11.86178       21.36283       19.93719
O         14.44162       21.36283        6.36621
O         14.44162        4.94057       19.93719
O          6.36621       25.01348       18.09227
O         19.93719       25.01348        8.21113
O          6.36621        1.28992        8.21113
O         19.93719        1.28992       18.09227
O          6.36621        4.94057       14.44162
O         19.93719       21.36283       14.44162
O          6.36621       21.36283       11.86178
O         19.93719        4.94057       11.86178
O         18.09227       25.01348       19.93719
O          8.21113       25.01348        6.36621
O          8.21113        1.28992       19.93719
O         18.09227        1.28992        6.36621
O         11.86178       19.51791        8.21113
O         11.86178        6.78549       18.09227
O         14.44162       19.51791       18.09227
O         14.44162        6.78549        8.21113
O          8.21113        6.78549       14.44162
O         18.09227       19.51791       14.44162
O         18.09227        6.78549       11.86178
O          8.21113       19.51791       11.86178
O         14.44162       21.36283       19.93719
O         14.44162        4.94057        6.36621
O         11.86178        4.94057       19.93719
O         11.86178       21.36283        6.36621
O         19.93719        1.28992        8.21113
O          6.36621        1.28992       18.09227
O         19.93719       25.01348       18.09227
O          6.36621       25.01348        8.21113
O         19.93719       21.36283       11.86178
O          6.36621        4.94057       11.86178
O         19.93719        4.94057       14.44162
O          6.36621       21.36283       14.44162
O          8.21113        1.28992        6.36621
O         18.09227        1.28992       19.93719
O         18.09227       25.01348        6.36621
O          8.21113       25.01348       19.93719
O         14.44162        6.78549       18.09227
O         14.44162       19.51791        8.21113
O         11.86178        6.78549        8.21113
O         11.86178       19.51791       18.09227
O         18.09227        6.36621       25.01348
O          8.21113       19.93719       25.01348
O          8.21113        6.36621        1.28992
O         18.09227       19.93719        1.28992
O         11.86178       18.09227       19.51791
O         11.86178        8.21113        6.78549
O         14.44162        8.21113       19.51791
O         14.44162       18.09227        6.78549
O          6.36621       11.86178        4.94057
O         19.93719       11.86178       21.36283
O          6.36621       14.44162       21.36283
O         19.93719       14.44162        4.94057
O          6.36621       18.09227        1.28992
O         19.93719        8.21113        1.28992
O          6.36621        8.21113       25.01348
O         19.93719       18.09227       25.01348
O         18.09227       11.86178        6.78549
O          8.21113       11.86178       19.51791
O          8.21113       14.44162        6.78549
O         18.09227       14.44162       19.51791
O         11.86178        6.36621       21.36283
O         11.86178       19.93719        4.94057
O         14.44162        6.36621        4.94057
O         14.44162       19.93719       21.36283
O          8.21113       19.93719        1.28992
O         18.09227        6.36621        1.28992
O         18.09227       19.93719       25.01348
O          8.21113        6.36621       25.01348
O         14.44162        8.21113        6.78549
O         14.44162       18.09227       19.51791
O         11.86178       18.09227        6.78549
O         11.86178        8.21113       19.51791
O         19.93719       14.44162       21.36283
O          6.36621       14.44162        4.94057
O         19.93719       11.86178        4.94057
O          6.36621       11.86178       21.36283
O         19.93719        8.21113       25.01348
O          6.36621       18.09227       25.01348
O         19.93719       18.09227        1.28992
O          6.36621        8.21113        1.28992
O          8.21113       14.44162       19.51791
O         18.09227       14.44162        6.78549
O         18.09227       11.86178       19.51791
O          8.21113       11.86178        6.78549
O         14.44162       19.93719        4.94057
O         14.44162        6.36621       21.36283
O         11.86178       19.93719       21.36283
O         11.86178        6.36621        4.94057
O          4.12437       22.17903        0.00000
O         22.17903        4.12437        0.00000
O         22.17903       22.17903        0.00000
O          4.12437        4.12437        0.00000
O         -0.00000        4.12437       22.17903
O         -0.00000       22.17903        4.12437
O         -0.00000       22.17903       22.17903
O         -0.00000        4.12437        4.12437
O         22.17903       -0.00000        4.12437
O          4.12437       -0.00000       22.17903
O         22.17903       -0.00000       22.17903
O          4.12437       -0.00000        4.12437
O          4.12437        9.02733       13.15170
O         22.17903       17.27607       13.15170
O         22.17903        9.02733       13.15170
O          4.12437       17.27607       13.15170
O         -0.00000       17.27607        9.02733
O         -0.00000        9.02733       17.27607
O         -0.00000        9.02733        9.02733
O         -0.00000       17.27607       17.27607
O         22.17903       13.15170       17.27607
O          4.12437       13.15170        9.02733
O         22.17903       13.15170        9.02733
O          4.12437       13.15170       17.27607
O         17.27607       22.17903       13.15170
O          9.02733        4.12437       13.15170
O          9.02733       22.17903       13.15170
O         17.27607        4.12437       13.15170
O         13.15170        4.12437        9.02733
O         13.15170       22.17903       17.27607
O         13.15170       22.17903        9.02733
O         13.15170        4.12437       17.27607
O          9.02733       -0.00000       17.27607
O         17.27607       -0.00000        9.02733
O          9.02733       -0.00000        9.02733
O         17.27607       -0.00000       17.27607
O         17.27607        9.02733        0.00000
O          9.02733       17.27607        0.00000
O          9.02733        9.02733        0.00000
O         17.27607       17.27607        0.00000
O         13.15170       17.27607       22.17903
O         13.15170        9.02733        4.12437
O         13.15170        9.02733       22.17903
O         13.15170       17.27607        4.12437
O          9.02733       13.15170        4.12437
O         17.27607       13.15170       22.17903
O          9.02733       13.15170       22.17903
O         17.27607       13.15170        4.12437
C          5.37668       18.52838       24.46427
C         20.92672        7.77502       24.46427
C         20.92672       18.52838        1.83913
C          5.37668        7.77502        1.83913
C         24.46427        5.37668       18.52838
C         24.46427       20.92672        7.77502
C          1.83913       20.92672       18.52838
C          1.83913        5.37668        7.77502
C         18.52838       24.46427        5.37668
C          7.77502       24.46427       20.92672
C         18.52838        1.83913       20.92672
C          7.77502        1.83913        5.37668
C         18.52838        5.37668        1.83913
C          7.77502       20.92672        1.83913
C         18.52838       20.92672       24.46427
C          7.77502        5.37668       24.46427
C          5.37668       24.46427        7.77502
C         20.92672       24.46427       18.52838
C         20.92672        1.83913        7.77502
C          5.37668        1.83913       18.52838
C         24.46426       18.52838       20.92672
C         24.46427        7.77502        5.37668
C          1.83913       18.52838        5.37668
C          1.83913        7.77502       20.92672
C         20.92672        7.77502        1.83913
C          5.37668       18.52838        1.83913
C          5.37668        7.77502       24.46427
C         20.92672       18.52838       24.46427
C          1.83913       20.92672        7.77502
C          1.83913        5.37668       18.52838
C         24.46427        5.37668        7.77502
C         24.46426       20.92672       18.52838
C          7.77502        1.83913       20.92672
C         18.52838        1.83913        5.37668
C          7.77502       24.46427        5.37668
C         18.52838       24.46427       20.92672
C          7.77502       20.92672       24.46427
C         18.52838        5.37668       24.46427
C          7.77502        5.37668        1.83913
C         18.52838       20.92672        1.83913
C         20.92672        1.83913       18.52838
C          5.37668        1.83913        7.77502
C          5.37668       24.46427       18.52838
C         20.92672       24.46427        7.77502
C          1.83913        7.77502        5.37668
C          1.83913       18.52838       20.92672
C         24.46427        7.77502       20.92672
C         24.46427       18.52838        5.37668
C          5.37668        5.37668       11.31257
C         20.92672       20.92672       11.31257
C         20.92672        5.37668       14.99083
C          5.37668       20.92672       14.99083
C         18.52838       11.31257       18.52838
C          7.77502       11.31257        7.77502
C         18.52838       14.99083        7.77502
C          7.77502       14.99083       18.52838
C         18.52838       18.52838       14.99083
C          7.77502        7.77502       14.99083
C         18.52838        7.77502       11.31257
C          7.77502       18.52838       11.31257
C          5.37668       11.31257       20.92672
C         20.92672       11.31257        5.37668
C         20.92672       14.99083       20.92672
C          5.37668       14.99083        5.37668
C         20.92672       20.92672       14.99083
C          5.37668        5.37668       14.99083
C          5.37668       20.92672       11.31257
C         20.92672        5.37668       11.31257
C          7.77502       14.99083        7.77502
C         18.52838       14.99083       18.52838
C          7.77502       11.31257       18.52838
C         18.52838       11.31257        7.77502
C          7.77502        7.77502       11.31257
C         18.52838       18.52838       11.31257
C          7.77502       18.52838       14.99083
C         18.52838        7.77502       14.99083
C         20.92672       14.99083        5.37668
C          5.37668       14.99083       20.92672
C          5.37668       11.31257        5.37668
C         20.92672       11.31257       20.92672
C         11.31257        5.37668        5.37668
C         11.31256       20.92672       20.92672
C         14.99083       20.92672        5.37668
C         14.99083        5.37668       20.92672
C         11.31257       18.52838        7.77502
C         11.31257        7.77502       18.52838
C         14.99083       18.52838       18.52838
C         14.99083        7.77502        7.77502
C         14.99083       20.92672       20.92672
C         14.99083        5.37668        5.37668
C         11.31257        5.37668       20.92672
C         11.31257       20.92672        5.37668
C         14.99083        7.77502       18.52838
C         14.99083       18.52838        7.77502
C         11.31257        7.77502        7.77502
C         11.31256       18.52838       18.52838
C          4.76407       17.91577       23.24642
C         21.53933        8.38763       23.24642
C         21.53933       17.91577        3.05698
C          4.76407        8.38763        3.05698
C         23.24642        4.76407       17.91577
C         23.24642       21.53933        8.38763
C          3.05698       21.53933       17.91577
C          3.05698        4.76407        8.38763
C         17.91577       23.24642        4.76407
C          8.38763       23.24642       21.53933
C         17.91577        3.05698       21.53933
C          8.38763        3.05698        4.76407
C         17.91577        4.76407        3.05698
C          8.38763       21.53933        3.05698
C         17.91577       21.53933       23.24642
C          8.38763        4.76407       23.24642
C          4.76407       23.24642        8.38763
C         21.53933       23.24642       17.91577
C         21.53933        3.05698        8.38763
C          4.76407        3.05698       17.91577
C         23.24642       17.91577       21.53933
C         23.24642        8.38763        4.76407
C          3.05698       17.91577        4.76407
C          3.05698        8.38763       21.53933
C         21.53933        8.38763        3.05698
C          4.76407       17.91577        3.05698
C          4.76407        8.38763       23.24642
C         21.53933       17.91577       23.24642
C          3.05698       21.53933        8.38763
C          3.05698        4.76407       17.91577
C         23.24642        4.76407        8.38763
C         23.24642       21.53933       17.91577
C          8.38763        3.05698       21.53933
C         17.91577        3.05698        4.76407
C          8.38763       23.24642        4.76407
C         17.91577       23.24642       21.53933
C          8.38763       21.53933       23.24642
C         17.91577        4.76407       23.24642
C          8.38763        4.76407        3.05698
C         17.91577       21.53933        3.05698
C         21.53933        3.05698       17.91577
C          4.76407        3.05698        8.38763
C          4.76407       23.24642       17.91577
C         21.53933       23.24642        8.38763
C          3.05698        8.38763        4.76407
C          3.05698       17.91577       21.53933
C         23.24642        8.38763       21.53933
C         23.24642       17.91577        4.76407
C          4.76407        4.76407       10.09472
C         21.53933       21.53933       10.09472
C         21.53933        4.76407       16.20868
C          4.76407       21.53933       16.20868
C         17.91577       10.09472       17.91577
C          8.38763       10.09472        8.38763
C         17.91577       16.20868        8.38763
C          8.38763       16.20868       17.91577
C         17.91577       17.91577       16.20868
C          8.38763        8.38763       16.20868
C         17.91577        8.38763       10.09472
C          8.38763       17.91577       10.09472
C          4.76407       10.09472       21.53933
C         21.53933       10.09472        4.76407
C         21.53933       16.20868       21.53933
C          4.76407       16.20868        4.76407
C         21.53933       21.53933       16.20868
C          4.76407        4.76407       16.20868
C          4.76407       21.53933       10.09472
C         21.53933        4.76407       10.09472
C          8.38763       16.20868        8.38763
C         17.91577       16.20868       17.91577
C          8.38763       10.09472       17.91577
C         17.91577       10.09472        8.38763
C          8.38763        8.38763       10.09472
C         17.91577       17.91577       10.09472
C          8.38763       17.91577       16.20868
C         17.91577        8.38763       16.20868
C         21.53933       16.20868        4.76407
C          4.76407       16.20868       21.53933
C          4.76407       10.09472        4.76407
C         21.53933       10.09472       21.53933
C         10.09472        4.76407        4.76407
C         10.09472       21.53933       21.53933
C         16.20868       21.53933        4.76407
C         16.20868        4.76407       21.53933
C         10.09472       17.91577        8.38763
C         10.09472        8.38763       17.91577
C         16.20868       17.91577       17.91577
C         16.20868        8.38763        8.38763
C         16.20868       21.53933       21.53933
C         16.20868        4.76407        4.76407
C         10.09472        4.76407       21.53933
C         10.09472       21.53933        4.76407
C         16.20868        8.38763       17.91577
C         16.20868       17.91577        8.38763
C         10.09472        8.38763        8.38763
C         10.09472       17.91577       17.91577
C          5.33328       16.77762       22.67748
C         20.97012        9.52578       22.67748
C         20.97012       16.77762        3.62592
C          5.33328        9.52578        3.62592
C         22.67748        5.33328       16.77762
C         22.67748       20.97012        9.52578
C          3.62592       20.97012       16.77762
C          3.62592        5.33328        9.52578
C         16.77762       22.67748        5.33328
C          9.52577       22.67748       20.97012
C         16.77762        3.62592       20.97012
C          9.52578        3.62592        5.33328
C         16.77762        5.33328        3.62592
C          9.52578       20.97012        3.62592
C         16.77762       20.97012       22.67748
C          9.52578        5.33328       22.67748
C          5.33328       22.67748        9.52578
C         20.97012       22.67748       16.77762
C         20.97012        3.62592        9.52578
C          5.33328        3.62592       16.77762
C         22.67747       16.77762       20.97012
C         22.67748        9.52578        5.33328
C          3.62592       16.77762        5.33328
C          3.62592        9.52578       20.97012
C         20.97012        9.52578        3.62592
C          5.33328       16.77762        3.62592
C          5.33328        9.52578       22.67748
C         20.97012       16.77762       22.67748
C          3.62592       20.97012        9.52578
C          3.62592        5.33328       16.77762
C         22.67748        5.33328        9.52578
C         22.67747       20.97012       16.77762
C          9.52578        3.62592       20.97012
C         16.77762        3.62592        5.33328
C          9.52578       22.67748        5.33328
C         16.77762       22.67748       20.97012
C          9.52577       20.97012       22.67748
C         16.77762        5.33328       22.67748
C          9.52578        5.33328        3.62592
C         16.77762       20.97012        3.62592
C         20.97012        3.62592       16.77762
C          5.33328        3.62592        9.52578
C          5.33328       22.67748       16.77762
C         20.97012       22.67748        9.52578
C          3.62592        9.52578        5.33328
C          3.62592       16.77762       20.97012
C         22.67748        9.52578       20.97012
C         22.67748       16.77762        5.33328
C         22.67748       18.48498        3.62592
C         22.67748        7.81842       22.67748
C          3.62592        7.81842        3.62592
C          3.62592       18.48498       22.67748
C         16.77762        9.52578       18.48498
C          9.52578        9.52578        7.81842
C         16.77762       16.77762        7.81842
C          9.52577       16.77762       18.48498
C         16.77762       18.48498       16.77762
C          9.52578        7.81842       16.77762
C         16.77762        7.81842        9.52578
C          9.52578       18.48498        9.52578
C         22.67748        3.62592        7.81842
C         22.67747       22.67748       18.48498
C          3.62592        3.62592       18.48498
C          3.62592       22.67748        7.81842
C          3.62592        7.81842       22.67748
C          3.62592       18.48498        3.62592
C         22.67747       18.48498       22.67748
C         22.67748        7.81842        3.62592
C          9.52578       16.77762        7.81842
C         16.77762       16.77762       18.48498
C          9.52578        9.52578       18.48498
C         16.77762        9.52578        7.81842
C          9.52578        7.81842        9.52578
C         16.77762       18.48498        9.52578
C          9.52577       18.48498       16.77762
C         16.77762        7.81842       16.77762
C          3.62592       22.67748       18.48498
C          3.62592        3.62592        7.81842
C         22.67748       22.67748        7.81842
C         22.67748        3.62592       18.48498
C         18.48498       16.77762        9.52578
C          7.81842        9.52578        9.52578
C          7.81842       16.77762       16.77762
C         18.48498        9.52578       16.77762
C         18.48498       22.67748       22.67748
C          7.81842       22.67748        3.62592
C          7.81842        3.62592       22.67748
C         18.48498        3.62592        3.62592
C          7.81842        9.52578       16.77762
C         18.48498       16.77762       16.77762
C         18.48498        9.52578        9.52578
C          7.81842       16.77762        9.52578
C          7.81842        3.62592        3.62592
C         18.48498        3.62592       22.67748
C         18.48498       22.67748        3.62592
C          7.81842       22.67748       22.67748
H          6.07635       16.40630       23.04880
H         20.22705        9.89710       23.04880
H         20.22705       16.40630        3.25460
H          6.07635        9.89710        3.25460
H         23.04880        6.07635       16.40630
H         23.04880       20.22705        9.89710
H          3.25460       20.22705       16.40630
H          3.25460        6.07635        9.89710
H         16.40630       23.04880        6.07635
H          9.89710       23.04880       20.22705
H         16.40630        3.25460       20.22705
H          9.89710        3.25460        6.07635
H         16.40630        6.07635        3.25460
H          9.89710       20.22705        3.25460
H         16.40630       20.22705       23.04880
H          9.89710        6.07635       23.04880
H          6.07635       23.04880        9.89710
H         20.22705       23.04880       16.40630
H         20.22705        3.25460        9.89710
H          6.07635        3.25460       16.40630
H         23.04880       16.40630       20.22705
H         23.04880        9.89710        6.07635
H          3.25460       16.40630        6.07635
H          3.25460        9.89710       20.22705
H         20.22705        9.89710        3.25460
H          6.07635       16.40630        3.25460
H          6.07635        9.89710       23.04880
H         20.22705       16.40630       23.04880
H          3.25460       20.22705        9.89710
H          3.25460        6.07635       16.40630
H         23.04880        6.07635        9.89710
H         23.04880       20.22705       16.40630
H          9.89710        3.25460       20.22705
H         16.40630        3.25460        6.07635
H          9.89710       23.04880        6.07635
H         16.40630       23.04880       20.22705
H          9.89710       20.22705       23.04880
H         16.40630        6.07635       23.04880
H          9.89710        6.07635        3.25460
H         16.40630       20.22705        3.25460
H         20.22705        3.25460       16.40630
H          6.07635        3.25460        9.89710
H          6.07635       23.04880       16.40630
H         20.22705       23.04880        9.89710
H          3.25460        9.89710        6.07635
H          3.25460       16.40630       20.22705
H         23.04880        9.89710       20.22705
H         23.04880       16.40630        6.07635
H         23.04880       19.22805        3.25460
H         23.04880        7.07535       23.04880
H          3.25460        7.07535        3.25460
H          3.25460       19.22805       23.04880
H         16.40630        9.89710       19.22805
H          9.89710        9.89710        7.07535
H         16.40630       16.40630        7.07535
H          9.89710       16.40630       19.22805
H         16.40630       19.22805       16.40630
H          9.89710        7.07535       16.40630
H         16.40630        7.07535        9.89710
H          9.89710       19.22805        9.89710
H         23.04880        3.25460        7.07535
H         23.04880       23.04880       19.22805
H          3.25460        3.25460       19.22805
H          3.25460       23.04880        7.07535
H          3.25460        7.07535       23.04880
H          3.25460       19.22805        3.25460
H         23.04880       19.22805       23.04880
H         23.04880        7.07535        3.25460
H          9.89710       16.40630        7.07535
H         16.40630       16.40630       19.22805
H          9.89710        9.89710       19.22805
H         16.40630        9.89710        7.07535
H          9.89710        7.07535        9.89710
H         16.40630       19.22805        9.89710
H          9.89710       19.22805       16.40630
H         16.40630        7.07535       16.40630
H          3.25460       23.04880       19.22805
H          3.25460        3.25460        7.07535
H         23.04880       23.04880        7.07535
H         23.04880        3.25460       19.22805
H         19.22805       16.40630        9.89710
H          7.07535        9.89710        9.89710
H          7.07535       16.40630       16.40630
H         19.22805        9.89710       16.40630
H         19.22805       23.04880       23.04880
H          7.07535       23.04880        3.25460
H          7.07535        3.25460       23.04880
H         19.22805        3.25460        3.25460
H          7.07535        9.89710       16.40630
H         19.22805       16.40630       16.40630
H         19.22805        9.89710        9.89710
H          7.07535       16.40630        9.89710
H          7.07535        3.25460        3.25460
H         19.22805        3.25460       23.04880
H         19.22805       23.04880        3.25460
H          7.07535       23.04880       23.04880
