624
CELL: 26.34300 26.34300 26.34300 90 90 90           #Chui
Cu         7.51566        7.51566        0.00000
Cu        18.82734       18.82734        0.00000
Cu        18.82734        7.51566        0.00000
Cu         7.51566       18.82734        0.00000
Cu        -0.00000        7.51566        7.51566
Cu        -0.00000       18.82734       18.82734
Cu        -0.00000       18.82734        7.51566
Cu        -0.00000        7.51566       18.82734
Cu         7.51566       -0.00000        7.51566
Cu        18.82734       -0.00000       18.82734
Cu         7.51566       -0.00000       18.82734
Cu        18.82734       -0.00000        7.51566
Cu         7.51566       20.68716       13.17150
Cu        18.82734        5.65584       13.17150
Cu        18.82734       20.68716       13.17150
Cu         7.51566        5.65584       13.17150
Cu        -0.00000       20.68716       20.68716
Cu        -0.00000        5.65584        5.65584
Cu        -0.00000        5.65584       20.68716
Cu        -0.00000       20.68716        5.65584
Cu         7.51566       13.17150       20.68716
Cu        18.82734       13.17150        5.65584
Cu         7.51566       13.17150        5.65584
Cu        18.82734       13.17150       20.68716
Cu        20.68716        7.51566       13.17150
Cu         5.65584       18.82734       13.17150
Cu         5.65584        7.51566       13.17150
Cu        20.68716       18.82734       13.17150
Cu        13.17150        7.51566       20.68716
Cu        13.17150       18.82734        5.65584
Cu        13.17150       18.82734       20.68716
Cu        13.17150        7.51566        5.65584
Cu        20.68716       -0.00000       20.68716
Cu         5.65584       -0.00000        5.65584
Cu        20.68716       -0.00000        5.65584
Cu         5.65584       -0.00000       20.68716
Cu        20.68716       20.68716        0.00000
Cu         5.65584        5.65584        0.00000
Cu         5.65584       20.68716        0.00000
Cu        20.68716        5.65584        0.00000
Cu        13.17150       20.68716        7.51566
Cu        13.17150        5.65584       18.82734
Cu        13.17150        5.65584        7.51566
Cu        13.17150       20.68716       18.82734
Cu        20.68716       13.17150        7.51566
Cu         5.65584       13.17150       18.82734
Cu        20.68716       13.17150       18.82734
Cu         5.65584       13.17150        7.51566
O          8.34019        6.40398       24.96790
O         18.00280       19.93902       24.96790
O         18.00281        6.40398        1.37510
O          8.34019       19.93902        1.37510
O         24.96790        8.34019        6.40398
O         24.96789       18.00281       19.93902
O          1.37510       18.00281        6.40398
O          1.37510        8.34019       19.93902
O          6.40398       24.96790        8.34019
O         19.93902       24.96790       18.00281
O          6.40398        1.37510       18.00281
O         19.93902        1.37510        8.34019
O          6.40398        8.34019        1.37510
O         19.93902       18.00281        1.37510
O          6.40398       18.00281       24.96790
O         19.93902        8.34019       24.96790
O          8.34019       24.96789       19.93902
O         18.00281       24.96790        6.40398
O         18.00281        1.37510       19.93902
O          8.34019        1.37510        6.40398
O         24.96789        6.40398       18.00281
O         24.96789       19.93902        8.34019
O          1.37510        6.40398        8.34019
O          1.37510       19.93902       18.00281
O         18.00281       19.93902        1.37510
O          8.34019        6.40398        1.37510
O          8.34019       19.93902       24.96790
O         18.00281        6.40398       24.96790
O          1.37510       18.00281       19.93902
O          1.37510        8.34019        6.40398
O         24.96789        8.34019       19.93902
O         24.96789       18.00281        6.40398
O         19.93902        1.37510       18.00281
O          6.40398        1.37510        8.34019
O         19.93902       24.96790        8.34019
O          6.40398       24.96790       18.00281
O         19.93902       18.00281       24.96790
O          6.40398        8.34019       24.96790
O         19.93902        8.34019        1.37510
O          6.40398       18.00281        1.37510
O         18.00281        1.37510        6.40398
O          8.34019        1.37510       19.93902
O          8.34019       24.96790        6.40398
O         18.00280       24.96789       19.93902
O          1.37510       19.93902        8.34019
O          1.37510        6.40398       18.00281
O         24.96789       19.93902       18.00281
O         24.96790        6.40398        8.34019
O          8.34019       19.57548       11.79640
O         18.00281        6.76752       11.79640
O         18.00280       19.57548       14.54660
O          8.34019        6.76752       14.54660
O         24.96789       21.51169       19.57548
O         24.96790        4.83131        6.76752
O          1.37510        4.83131       19.57548
O          1.37510       21.51169        6.76752
O          6.40398       11.79639       21.51169
O         19.93902       11.79640        4.83131
O          6.40398       14.54660        4.83131
O         19.93902       14.54660       21.51169
O          6.40398       21.51169       14.54660
O         19.93902        4.83131       14.54660
O          6.40398        4.83131       11.79640
O         19.93902       21.51169       11.79640
O          8.34019       11.79640        6.76752
O         18.00281       11.79639       19.57548
O         18.00281       14.54660        6.76752
O          8.34019       14.54660       19.57548
O         24.96789       19.57548        4.83131
O         24.96789        6.76752       21.51169
O          1.37510       19.57548       21.51169
O          1.37510        6.76752        4.83131
O         18.00281        6.76752       14.54660
O          8.34019       19.57548       14.54660
O          8.34019        6.76752       11.79640
O         18.00281       19.57548       11.79640
O          1.37510        4.83131        6.76752
O          1.37510       21.51169       19.57548
O         24.96789       21.51169        6.76752
O         24.96789        4.83131       19.57548
O         19.93902       14.54660        4.83131
O          6.40398       14.54660       21.51169
O         19.93902       11.79639       21.51169
O          6.40398       11.79640        4.83131
O         19.93902        4.83131       11.79640
O          6.40398       21.51169       11.79640
O         19.93902       21.51169       14.54660
O          6.40398        4.83131       14.54660
O         18.00280       14.54660       19.57548
O          8.34019       14.54660        6.76752
O          8.34019       11.79639       19.57548
O         18.00281       11.79640        6.76752
O          1.37510        6.76752       21.51169
O          1.37510       19.57548        4.83131
O         24.96790        6.76752        4.83131
O         24.96789       19.57548       21.51169
O         21.51169        6.40398       11.79640
O          4.83130       19.93902       11.79640
O          4.83131        6.40398       14.54660
O         21.51169       19.93902       14.54660
O         11.79639        8.34019       19.57548
O         11.79639       18.00281        6.76752
O         14.54660       18.00281       19.57548
O         14.54660        8.34019        6.76752
O         19.57548       24.96789       21.51169
O          6.76752       24.96790        4.83131
O         19.57548        1.37510        4.83131
O          6.76752        1.37510       21.51169
O         19.57548        8.34019       14.54660
O          6.76752       18.00281       14.54660
O         19.57548       18.00281       11.79640
O          6.76752        8.34019       11.79640
O         21.51169       24.96790        6.76752
O          4.83130       24.96789       19.57548
O          4.83131        1.37510        6.76752
O         21.51169        1.37510       19.57548
O         11.79640        6.40398        4.83131
O         11.79639       19.93902       21.51169
O         14.54660        6.40398       21.51169
O         14.54660       19.93902        4.83131
O          4.83130       19.93902       14.54660
O         21.51169        6.40398       14.54660
O         21.51169       19.93902       11.79640
O          4.83131        6.40398       11.79640
O         14.54660       18.00281        6.76752
O         14.54660        8.34019       19.57548
O         11.79639        8.34019        6.76752
O         11.79639       18.00281       19.57548
O          6.76752        1.37510        4.83131
O         19.57548        1.37510       21.51169
O          6.76751       24.96789       21.51169
O         19.57548       24.96790        4.83131
O          6.76752       18.00281       11.79640
O         19.57548        8.34019       11.79640
O          6.76752        8.34019       14.54660
O         19.57548       18.00281       14.54660
O          4.83131        1.37510       19.57548
O         21.51169        1.37510        6.76752
O         21.51169       24.96789       19.57548
O          4.83130       24.96790        6.76752
O         14.54660       19.93902       21.51169
O         14.54660        6.40398        4.83131
O         11.79639       19.93902        4.83131
O         11.79639        6.40398       21.51169
O         21.51169       19.57548       24.96790
O          4.83130        6.76752       24.96790
O          4.83131       19.57548        1.37510
O         21.51169        6.76752        1.37510
O         11.79639       21.51169        6.40398
O         11.79639        4.83131       19.93902
O         14.54660        4.83131        6.40398
O         14.54660       21.51169       19.93902
O         19.57548       11.79640        8.34019
O          6.76752       11.79639       18.00281
O         19.57548       14.54660       18.00281
O          6.76752       14.54660        8.34019
O         19.57548       21.51169        1.37510
O          6.76752        4.83131        1.37510
O         19.57548        4.83131       24.96790
O          6.76751       21.51169       24.96790
O         21.51169       11.79639       19.93902
O          4.83131       11.79640        6.40398
O          4.83130       14.54660       19.93902
O         21.51169       14.54660        6.40398
O         11.79639       19.57548       18.00281
O         11.79639        6.76752        8.34019
O         14.54660       19.57548        8.34019
O         14.54660        6.76752       18.00281
O          4.83131        6.76752        1.37510
O         21.51169       19.57548        1.37510
O         21.51169        6.76752       24.96790
O          4.83130       19.57548       24.96790
O         14.54660        4.83131       19.93902
O         14.54660       21.51169        6.40398
O         11.79639       21.51169       19.93902
O         11.79640        4.83131        6.40398
O          6.76752       14.54660       18.00281
O         19.57548       14.54660        8.34019
O          6.76752       11.79640        8.34019
O         19.57548       11.79639       18.00281
O          6.76752        4.83131       24.96790
O         19.57548       21.51169       24.96790
O          6.76752       21.51169        1.37510
O         19.57548        4.83131        1.37510
O          4.83131       14.54660        6.40398
O         21.51169       14.54660       19.93902
O         21.51169       11.79640        6.40398
O          4.83130       11.79639       19.93902
O         14.54660        6.76752        8.34019
O         14.54660       19.57548       18.00281
O         11.79639        6.76752       18.00281
O         11.79639       19.57548        8.34019
C          7.81860        5.35290       24.53324
C         18.52440       20.99010       24.53324
C         18.52440        5.35290        1.80976
C          7.81860       20.99010        1.80976
C         24.53324        7.81860        5.35290
C         24.53323       18.52440       20.99010
C          1.80976       18.52440        5.35290
C          1.80976        7.81860       20.99010
C          5.35290       24.53324        7.81860
C         20.99010       24.53324       18.52440
C          5.35290        1.80976       18.52440
C         20.99010        1.80976        7.81860
C          5.35290        7.81860        1.80976
C         20.99010       18.52440        1.80976
C          5.35290       18.52440       24.53324
C         20.99010        7.81860       24.53324
C          7.81860       24.53324       20.99010
C         18.52440       24.53324        5.35290
C         18.52440        1.80976       20.99010
C          7.81860        1.80976        5.35290
C         24.53324        5.35290       18.52440
C         24.53324       20.99010        7.81860
C          1.80976        5.35290        7.81860
C          1.80976       20.99010       18.52440
C         18.52440       20.99010        1.80976
C          7.81860        5.35290        1.80976
C          7.81860       20.99010       24.53324
C         18.52440        5.35290       24.53324
C          1.80976       18.52440       20.99010
C          1.80976        7.81860        5.35290
C         24.53324        7.81860       20.99010
C         24.53324       18.52440        5.35290
C         20.99010        1.80976       18.52440
C          5.35290        1.80976        7.81860
C         20.99010       24.53324        7.81860
C          5.35290       24.53324       18.52440
C         20.99010       18.52440       24.53324
C          5.35290        7.81860       24.53324
C         20.99010        7.81860        1.80976
C          5.35290       18.52440        1.80976
C         18.52440        1.80976        5.35290
C          7.81860        1.80976       20.99010
C          7.81860       24.53324        5.35290
C         18.52440       24.53324       20.99010
C          1.80976       20.99010        7.81860
C          1.80976        5.35290       18.52440
C         24.53323       20.99010       18.52440
C         24.53324        5.35290        7.81860
C          7.81860       18.52440       11.36174
C         18.52440        7.81860       11.36174
C         18.52440       18.52440       14.98126
C          7.81860        7.81860       14.98126
C          5.35290       11.36174       20.99010
C         20.99010       11.36174        5.35290
C          5.35290       14.98126        5.35290
C         20.99010       14.98126       20.99010
C          5.35290       20.99010       14.98126
C         20.99010        5.35290       14.98126
C          5.35290        5.35290       11.36174
C         20.99010       20.99010       11.36174
C          7.81860       11.36174        7.81860
C         18.52440       11.36174       18.52440
C         18.52440       14.98126        7.81860
C          7.81860       14.98126       18.52440
C         18.52440        7.81860       14.98126
C          7.81860       18.52440       14.98126
C          7.81860        7.81860       11.36174
C         18.52440       18.52440       11.36174
C         20.99010       14.98126        5.35290
C          5.35290       14.98126       20.99010
C         20.99010       11.36174       20.99010
C          5.35290       11.36174        5.35290
C         20.99010        5.35290       11.36174
C          5.35290       20.99010       11.36174
C         20.99010       20.99010       14.98126
C          5.35290        5.35290       14.98126
C         18.52440       14.98126       18.52440
C          7.81860       14.98126        7.81860
C          7.81860       11.36174       18.52440
C         18.52440       11.36174        7.81860
C         11.36173        7.81860       18.52440
C         11.36173       18.52440        7.81860
C         14.98126       18.52440       18.52440
C         14.98126        7.81860        7.81860
C         11.36174        5.35290        5.35290
C         11.36173       20.99010       20.99010
C         14.98126        5.35290       20.99010
C         14.98126       20.99010        5.35290
C         14.98126       18.52440        7.81860
C         14.98126        7.81860       18.52440
C         11.36174        7.81860        7.81860
C         11.36173       18.52440       18.52440
C         14.98126       20.99010       20.99010
C         14.98126        5.35290        5.35290
C         11.36173       20.99010        5.35290
C         11.36173        5.35290       20.99010
C          8.48244        4.68905       23.36624
C         17.86055       21.65395       23.36624
C         17.86055        4.68905        2.97676
C          8.48245       21.65395        2.97676
C         23.36624        8.48245        4.68905
C         23.36624       17.86055       21.65395
C          2.97676       17.86055        4.68905
C          2.97676        8.48245       21.65395
C          4.68905       23.36624        8.48245
C         21.65394       23.36624       17.86055
C          4.68905        2.97676       17.86055
C         21.65395        2.97676        8.48245
C          4.68905        8.48245        2.97676
C         21.65395       17.86055        2.97676
C          4.68905       17.86055       23.36624
C         21.65394        8.48245       23.36624
C          8.48244       23.36624       21.65395
C         17.86055       23.36624        4.68905
C         17.86055        2.97676       21.65395
C          8.48245        2.97676        4.68905
C         23.36624        4.68905       17.86055
C         23.36624       21.65395        8.48245
C          2.97676        4.68905        8.48245
C          2.97676       21.65395       17.86055
C         17.86055       21.65395        2.97676
C          8.48245        4.68905        2.97676
C          8.48244       21.65395       23.36624
C         17.86055        4.68905       23.36624
C          2.97676       17.86055       21.65395
C          2.97676        8.48245        4.68905
C         23.36624        8.48245       21.65395
C         23.36624       17.86055        4.68905
C         21.65395        2.97676       17.86055
C          4.68905        2.97676        8.48245
C         21.65394       23.36624        8.48245
C          4.68905       23.36624       17.86055
C         21.65394       17.86055       23.36624
C          4.68905        8.48245       23.36624
C         21.65395        8.48245        2.97676
C          4.68905       17.86055        2.97676
C         17.86055        2.97676        4.68905
C          8.48245        2.97676       21.65395
C          8.48244       23.36624        4.68905
C         17.86055       23.36624       21.65395
C          2.97676       21.65395        8.48245
C          2.97676        4.68905       17.86055
C         23.36624       21.65395       17.86055
C         23.36624        4.68905        8.48245
C          8.48244       17.86055       10.19474
C         17.86055        8.48245       10.19474
C         17.86055       17.86055       16.14826
C          8.48245        8.48245       16.14826
C          4.68905       10.19474       21.65395
C         21.65395       10.19474        4.68905
C          4.68905       16.14826        4.68905
C         21.65394       16.14826       21.65395
C          4.68905       21.65395       16.14826
C         21.65395        4.68905       16.14826
C          4.68905        4.68905       10.19474
C         21.65394       21.65395       10.19474
C          8.48245       10.19474        8.48245
C         17.86055       10.19474       17.86055
C         17.86055       16.14826        8.48245
C          8.48244       16.14826       17.86055
C         17.86055        8.48245       16.14826
C          8.48244       17.86055       16.14826
C          8.48245        8.48245       10.19474
C         17.86055       17.86055       10.19474
C         21.65395       16.14826        4.68905
C          4.68905       16.14826       21.65395
C         21.65394       10.19474       21.65395
C          4.68905       10.19474        4.68905
C         21.65395        4.68905       10.19474
C          4.68905       21.65395       10.19474
C         21.65394       21.65395       16.14826
C          4.68905        4.68905       16.14826
C         17.86055       16.14826       17.86055
C          8.48245       16.14826        8.48245
C          8.48244       10.19474       17.86055
C         17.86055       10.19474        8.48245
C         10.19474        8.48245       17.86055
C         10.19474       17.86055        8.48245
C         16.14826       17.86055       17.86055
C         16.14826        8.48245        8.48245
C         10.19474        4.68905        4.68905
C         10.19474       21.65395       21.65395
C         16.14826        4.68905       21.65395
C         16.14826       21.65395        4.68905
C         16.14826       17.86055        8.48245
C         16.14826        8.48245       17.86055
C         10.19474        8.48245        8.48245
C         10.19474       17.86055       17.86055
C         16.14826       21.65395       21.65395
C         16.14826        4.68905        4.68905
C         10.19474       21.65395        4.68905
C         10.19474        4.68905       21.65395
C          9.62837        5.25279       22.79987
C         16.71463       21.09021       22.79987
C         16.71463        5.25279        3.54313
C          9.62837       21.09021        3.54313
C         22.79987        9.62837        5.25279
C         22.79987       16.71463       21.09021
C          3.54313       16.71463        5.25279
C          3.54313        9.62837       21.09021
C          5.25279       22.79987        9.62837
C         21.09020       22.79987       16.71463
C          5.25279        3.54313       16.71463
C         21.09021        3.54313        9.62837
C          5.25279        9.62837        3.54313
C         21.09021       16.71463        3.54313
C          5.25279       16.71463       22.79987
C         21.09020        9.62837       22.79987
C          9.62836       22.79987       21.09021
C         16.71463       22.79987        5.25279
C         16.71463        3.54313       21.09021
C          9.62837        3.54313        5.25279
C         22.79987        5.25279       16.71463
C         22.79987       21.09021        9.62837
C          3.54313        5.25279        9.62837
C          3.54313       21.09021       16.71463
C         16.71463       21.09021        3.54313
C          9.62837        5.25279        3.54313
C          9.62836       21.09021       22.79987
C         16.71463        5.25279       22.79987
C          3.54313       16.71463       21.09021
C          3.54313        9.62837        5.25279
C         22.79987        9.62837       21.09021
C         22.79987       16.71463        5.25279
C         21.09021        3.54313       16.71463
C          5.25279        3.54313        9.62837
C         21.09020       22.79987        9.62837
C          5.25279       22.79987       16.71463
C         21.09020       16.71463       22.79987
C          5.25279        9.62837       22.79987
C         21.09021        9.62837        3.54313
C          5.25279       16.71463        3.54313
C         16.71463        3.54313        5.25279
C          9.62837        3.54313       21.09021
C          9.62837       22.79987        5.25279
C         16.71463       22.79987       21.09021
C          3.54313       21.09021        9.62837
C          3.54313        5.25279       16.71463
C         22.79987       21.09021       16.71463
C         22.79987        5.25279        9.62837
C          9.62837       18.42429        9.62837
C         16.71463        7.91871        9.62837
C         16.71463       18.42429       16.71463
C          9.62837        7.91871       16.71463
C         22.79987       22.79987       18.42429
C         22.79987        3.54313        7.91871
C          3.54313        3.54313       18.42429
C          3.54313       22.79987        7.91871
C          9.62837        9.62837        7.91871
C         16.71463        9.62837       18.42429
C         16.71463       16.71463        7.91871
C          9.62837       16.71463       18.42429
C         22.79987       18.42429        3.54313
C         22.79987        7.91870       22.79987
C          3.54313       18.42429       22.79987
C          3.54313        7.91871        3.54313
C         16.71463        7.91871       16.71463
C          9.62837       18.42429       16.71463
C          9.62837        7.91871        9.62837
C         16.71463       18.42429        9.62837
C          3.54313        3.54313        7.91871
C          3.54313       22.79987       18.42429
C         22.79987       22.79987        7.91871
C         22.79987        3.54313       18.42429
C         16.71463       16.71463       18.42429
C          9.62837       16.71463        7.91871
C          9.62837        9.62837       18.42429
C         16.71463        9.62837        7.91871
C          3.54313        7.91870       22.79987
C          3.54313       18.42429        3.54313
C         22.79987        7.91871        3.54313
C         22.79987       18.42429       22.79987
C         18.42429       22.79987       22.79987
C          7.91870       22.79987        3.54313
C         18.42429        3.54313        3.54313
C          7.91870        3.54313       22.79987
C         18.42429        9.62837       16.71463
C          7.91870       16.71463       16.71463
C         18.42429       16.71463        9.62837
C          7.91871        9.62837        9.62837
C          7.91871        3.54313        3.54313
C         18.42429        3.54313       22.79987
C          7.91870       22.79987       22.79987
C         18.42429       22.79987        3.54313
C          7.91870       16.71463        9.62837
C         18.42429        9.62837        9.62837
C          7.91870        9.62837       16.71463
C         18.42429       16.71463       16.71463
H         10.01561        6.00620       23.18711
H         16.32739       20.33680       23.18711
H         16.32739        6.00620        3.15589
H         10.01561       20.33680        3.15589
H         23.18711       10.01561        6.00620
H         23.18711       16.32739       20.33680
H          3.15589       16.32739        6.00620
H          3.15589       10.01561       20.33680
H          6.00620       23.18711       10.01561
H         20.33679       23.18711       16.32739
H          6.00620        3.15589       16.32739
H         20.33680        3.15589       10.01561
H          6.00620       10.01561        3.15589
H         20.33680       16.32739        3.15589
H          6.00620       16.32739       23.18711
H         20.33679       10.01561       23.18711
H         10.01561       23.18711       20.33680
H         16.32739       23.18711        6.00620
H         16.32739        3.15589       20.33680
H         10.01561        3.15589        6.00620
H         23.18711        6.00620       16.32739
H         23.18711       20.33680       10.01561
H          3.15589        6.00620       10.01561
H          3.15589       20.33680       16.32739
H         16.32739       20.33680        3.15589
H         10.01561        6.00620        3.15589
H         10.01561       20.33680       23.18711
H         16.32739        6.00620       23.18711
H          3.15589       16.32739       20.33680
H          3.15589       10.01561        6.00620
H         23.18711       10.01561       20.33680
H         23.18711       16.32739        6.00620
H         20.33680        3.15589       16.32739
H          6.00620        3.15589       10.01561
H         20.33679       23.18711       10.01561
H          6.00620       23.18711       16.32739
H         20.33679       16.32739       23.18711
H          6.00620       10.01561       23.18711
H         20.33680       10.01561        3.15589
H          6.00620       16.32739        3.15589
H         16.32739        3.15589        6.00620
H         10.01561        3.15589       20.33680
H         10.01561       23.18711        6.00620
H         16.32739       23.18711       20.33680
H          3.15589       20.33680       10.01561
H          3.15589        6.00620       16.32739
H         23.18711       20.33680       16.32739
H         23.18711        6.00620       10.01561
H         10.01561       19.17770       10.01561
H         16.32739        7.16530       10.01561
H         16.32739       19.17770       16.32739
H         10.01561        7.16530       16.32739
H         23.18711       23.18711       19.17770
H         23.18711        3.15589        7.16530
H          3.15589        3.15589       19.17770
H          3.15589       23.18711        7.16530
H         10.01561       10.01561        7.16530
H         16.32739       10.01561       19.17770
H         16.32739       16.32739        7.16530
H         10.01561       16.32739       19.17770
H         23.18711       19.17770        3.15589
H         23.18711        7.16530       23.18711
H          3.15589       19.17770       23.18711
H          3.15589        7.16530        3.15589
H         16.32739        7.16530       16.32739
H         10.01561       19.17770       16.32739
H         10.01561        7.16530       10.01561
H         16.32739       19.17770       10.01561
H          3.15589        3.15589        7.16530
H          3.15589       23.18711       19.17770
H         23.18711       23.18711        7.16530
H         23.18711        3.15589       19.17770
H         16.32739       16.32739       19.17770
H         10.01561       16.32739        7.16530
H         10.01561       10.01561       19.17770
H         16.32739       10.01561        7.16530
H          3.15589        7.16530       23.18711
H          3.15589       19.17770        3.15589
H         23.18711        7.16530        3.15589
H         23.18711       19.17770       23.18711
H         19.17770       23.18711       23.18711
H          7.16529       23.18711        3.15589
H         19.17770        3.15589        3.15589
H          7.16529        3.15589       23.18711
H         19.17770       10.01561       16.32739
H          7.16529       16.32739       16.32739
H         19.17770       16.32739       10.01561
H          7.16530       10.01561       10.01561
H          7.16530        3.15589        3.15589
H         19.17770        3.15589       23.18711
H          7.16529       23.18711       23.18711
H         19.17770       23.18711        3.15589
H          7.16529       16.32739       10.01561
H         19.17770       10.01561       10.01561
H          7.16529       10.01561       16.32739
H         19.17770       16.32739       16.32739
