 30
 
O 1.000000 2.000000 3.616354 
C 1.000000 2.000000 4.786354 
O 1.000000 2.000000 5.956354 
O 1.000000 2.000000 3.616354 
C 0.856338 1.856338 4.768579 
O 0.712677 1.712677 5.920804 
O 1.000000 2.000000 3.616354 
C 0.717042 1.717042 4.715794 
O 0.434083 1.434083 5.815235 
O 1.000000 2.000000 3.616354 
C 0.586343 1.586343 4.629604 
O 0.172685 1.172685 5.642853 
O 1.000000 2.000000 3.616354 
C 0.468212 1.468212 4.512626 
O -0.063576 0.936424 5.408898 
O 1.000000 2.000000 3.616354 
C 0.366240 1.366240 4.368416 
O -0.267520 0.732480 5.120477 
O 1.000000 2.000000 3.616354 
C 0.283524 1.283524 4.201354 
O -0.432951 0.567049 4.786354 
O 1.000000 2.000000 3.616354 
C 0.222578 1.222578 4.016518 
O -0.554843 0.445157 4.416681 
O 1.000000 2.000000 3.616354 
C 0.185254 1.185254 3.819522 
O -0.629492 0.370508 4.022691 
O 1.000000 2.000000 3.616354 
C 0.172685 1.172685 3.616354 
O -0.654630 0.345370 3.616354 
