120
CELL: 11.61930  5.56670  22.93120  90.000  100.897  90.000  
  C    4.595    1.440    5.900 
  C   -0.953    4.223    5.359 
  C    2.689    4.127   16.618 
  C    8.237    1.344   17.159 
  C    3.349    1.175    6.735 
  C    0.293    3.958    4.524 
  C    3.936    4.392   15.783 
  C    6.991    1.608   17.994 
  C    2.325    2.109    6.758 
  C    1.317    4.893    4.501 
  C    4.959    3.457   15.760 
  C    5.968    0.674   18.016 
  H    2.435    2.943    6.314 
  H    1.207    0.160    4.945 
  H    4.849    2.624   16.204 
  H    6.077    5.407   17.573 
  C    1.135    1.827    7.429 
  C    2.507    4.610    3.830 
  C    6.149    3.740   15.089 
  C    4.778    0.956   18.687 
  H    0.423    2.457    7.440 
  H    3.219    5.240    3.819 
  H    6.861    3.110   15.078 
  H    4.065    0.327   18.699 
  C    1.011    0.610    8.082 
  C    2.631    3.393    3.177 
  C    6.273    4.957   14.436 
  C    4.653    2.173   19.340 
  C    2.051    5.240    8.113 
  C    1.592    2.457    3.146 
  C    5.234    0.327   14.405 
  C    5.693    3.110   19.372 
  H    1.958    4.430    8.602 
  H    1.685    1.647    2.657 
  H    5.327    1.137   13.916 
  H    5.600    3.920   19.861 
  C    3.223    5.518    7.415 
  C    0.420    2.734    3.844 
  C    4.062    0.049   15.103 
  C    6.865    2.832   18.674 
  H    3.931    4.886    7.399 
  H   -0.289    2.103    3.860 
  H    3.353    0.681   15.118 
  H    7.573    3.464   18.658 
  C   -0.307    0.623   10.588 
  C    3.949    3.406    0.671 
  C    7.591    4.944   11.930 
  C    3.335    2.160   21.847 
  C   -0.737    1.859   11.036 
  C    4.379    4.643    0.223 
  C    8.022    3.707   11.482 
  C    2.905    0.924   22.295 
  H   -1.074    2.506   10.426 
  H    4.716    5.289    0.833 
  H    8.358    3.061   12.092 
  H    2.568    0.277   21.685 
  C   -0.666    2.136   12.403 
  C   -0.027    4.919   21.374 
  C    7.950    3.431   10.115 
  C    7.311    0.647    1.144 
  H   -0.942    2.984   12.727 
  H    0.249    0.201   21.050 
  H    8.226    2.582    9.791 
  H    7.035    5.366    1.468 
  C   -0.192    1.177   13.285 
  C   -0.501    3.960   20.491 
  C    7.476    4.390    9.232 
  C    7.785    1.607    2.027 
  C    0.282    5.514   12.819 
  C   -0.975    2.730   20.957 
  C    7.002    0.053    9.698 
  C    8.260    2.836    1.560 
  H    0.640    4.876   13.425 
  H   -1.333    2.093   20.352 
  H    6.644    0.691    9.093 
  H    8.617    3.474    2.166 
  C    0.229    5.232   11.457 
  C   -0.921    2.448   22.320 
  C    7.056    0.335   11.061 
  C    8.206    3.118    0.198 
  H    0.551    4.403   11.121 
  H    3.091    1.620    0.137 
  H    6.733    1.163   11.396 
  H    4.193    3.947   22.380 
  C   -0.199    1.461   14.765 
  C   -0.494    4.244   19.012 
  C    7.483    4.106    7.753 
  C    7.778    1.323    3.506 
  O    4.860    2.647    5.679 
  O   10.401    5.430    5.580 
  O    2.424    2.920   16.839 
  O   -3.117    0.136   16.938 
  O    5.228    0.450    5.488 
  O   10.033    3.233    5.771 
  O    2.056    5.117   17.030 
  O   -2.749    2.334   16.747 
  O   -1.547    1.090    8.359 
  O    5.189    3.873    2.899 
  O    8.831    4.477   14.158 
  O    2.096    1.693   19.618 
  O   -0.687    4.340    8.794 
  O    4.329    1.556    2.465 
  O    7.971    1.227   13.724 
  O    2.955    4.010   20.053 
  O   -0.161    2.654   15.147 
  O   -0.532    5.438   18.630 
  O    7.445    2.913    7.371 
  O    7.816    0.129    3.888 
  O   -0.198    0.473   15.552 
  O   -0.494    3.257   18.224 
  O    7.483    5.094    6.966 
  O    7.779    2.310    4.293 
  S   -0.509    0.203    8.875 
  S    4.151    2.986    2.384 
  S    7.793    5.364   13.643 
  S    3.133    2.581   20.134 
 Ca    6.445    4.138    4.980 
 Ca    8.816    1.354    6.279 
 Ca    0.839    1.429   17.537 
 Ca   -1.532    4.212   16.239 
