246
CELL:  29.59600  29.59600  35.75700  90.000  90.000  120.000  
  C  16.16800   1.42900   0.08300 
  C  15.89900   2.19700  34.67700 
  C  16.05000   3.60100  34.65400 
  C  16.37100   4.26000   0.10000 
  C  16.59900   3.54900   1.29600 
  C  16.55300   2.13800   1.25200 
  H  15.57900   1.74100  33.82100 
  H  16.80600   1.62900   2.10100 
  H  16.43900   5.28300   0.10600 
  C  16.03510  -0.00486   0.08400 
  C   1.46300  24.85400  34.67000 
  C   1.27400  23.45500  34.64700 
  C   0.95300  22.80100   0.09700 
  C   0.76400  23.51500   1.29800 
  C   0.85400  24.92400   1.25700 
  H   1.77100  25.30500  33.80600 
  H   0.85000  21.78200   0.09900 
  H   0.61900  25.43800   2.10700 
  N   0.53400  22.80800   2.45300 
  H   0.06300  21.95900   2.34900 
  N   1.35100  22.71200  33.49700 
  H   1.71400  21.81200  33.60700 
  N  15.92600   4.34200  33.50700 
  H  15.57000   5.24300  33.62400 
  N  16.81200   4.26000   2.45200 
  H  17.26400   5.12000   2.35100 
  C  -6.80800  13.21900  23.90900 
  C  22.24700  12.61700  22.74200 
  C  20.94900  12.06100  22.71800 
  C  20.21900  12.01200  23.92300 
  C  20.73000  12.55000  25.12100 
  C  -7.61200  13.19800  25.08000 
  H  -6.79800  12.57100  21.88300 
  H  -7.29200  13.66600  25.92900 
  H  19.29400  11.57200  23.92600 
  C  -5.50000  13.82300  23.90800 
  C  -4.95800  14.42100  22.74000 
  C  -3.65900  14.97400  22.71500 
  C  -2.92800  15.02500  23.91900 
  C  -3.44100  14.49200  25.11900 
  C  -4.69600  13.84700  25.08000 
  H  -5.50900  14.46600  21.88100 
  H  -2.00300  15.46400  23.92100 
  H  -5.01800  13.38300  25.93100 
  N  -2.71700  14.66600  26.27300 
  H  -1.74500  14.69200  26.17500 
  N  -3.07100  15.43800  21.56600 
  H  -2.46900  16.19700  21.67800 
  N  20.36200  11.59600  21.56800 
  H  19.76600  10.83400  21.68500 
  N  20.00700  12.38100  26.27700 
  H  19.03600  12.35400  26.17400 
  C   9.22800  13.10500  11.99100 
  C  10.01100  12.93100  10.81900 
  C  11.13800  12.08100  10.79100 
  C  11.55100  11.47400  11.99400 
  C  10.83800  11.65400  13.19700 
  C   9.65200  12.42000  13.16100 
  H   9.77200  13.43100   9.96100 
  H   9.09200  12.46800  14.01400 
  H  12.39200  10.88900  11.99500 
  C   8.05500  13.94200  11.99700 
  C   7.25800  14.11300  10.83500 
  C   6.13300  14.96600  10.81700 
  C   5.73200  15.57400  12.02300 
  C   6.45900  15.39600  13.21800 
  C   7.64400  14.63100  13.17000 
  H   7.48700  13.61100   9.97500 
  H   4.89200  16.16000  12.03200 
  H   8.21400  14.58500  14.01700 
  N   5.96100  15.94200  14.37700 
  H   5.45000  16.76800  14.27700 
  N   5.43300  15.25000   9.67200 
  H   4.47700  15.40400   9.78800 
  N  11.82900  11.80100   9.63900 
  H  12.78800  11.66500   9.75400 
  N  11.35100  11.11400  14.35000 
  H  11.86000  10.28500  14.25100 
  C   5.30100  16.74500   7.75900 
  C   5.88800  17.97800   7.38700 
  C   5.16100  18.98400   6.70700 
  C   3.79300  18.73800   6.39400 
  C   3.21600  17.48800   6.70900 
  C   3.96000  16.50600   7.38300 
  H   2.23600  17.29500   6.48300 
  H   3.50300  15.62100   7.61700 
  C   2.97800  19.72300   5.77900 
  C   2.71600  19.58400   4.39900 
  C   2.09000  20.61500   3.68400 
  C   1.71100  21.81400   4.32900 
  C   1.94200  21.93500   5.71700 
  C   2.55800  20.90000   6.46300 
  H   3.04800  18.76200   3.88400 
  H   2.00400  20.51500   2.66900 
  H   1.68600  22.80800   6.18800 
  H   6.85400  18.17700   7.66300 
  N   5.79900  20.14500   6.38800 
  H   6.73700  20.28400   6.60800 
  H   5.35900  20.85300   5.89000 
  N   2.75400  21.08300   7.79800 
  H   3.14300  20.39100   8.35800 
  H   2.45600  21.89400   8.24700 
  C   6.02300  15.83100   8.58400 
  C   1.31200  22.94400   3.56600 
  O   2.06100  24.05600   3.75900 
  O   7.37500  15.84900   8.48500 
  C   0.09600  21.84600  31.59900 
  C  -1.26500  21.73200  31.22700 
  C  -1.76900  20.60100  30.54100 
  C  -0.86800  19.54600  30.21800 
  C   0.50300  19.67800  30.53000 
  C   0.97600  20.81100  31.21100 
  H   1.16400  18.93000  30.29800 
  H   1.97200  20.86000  31.44200 
  C  -1.30900  18.34600  29.59900 
  C  -1.06000  18.19400  28.21800 
  C  -1.62800  17.13000  27.50300 
  C  -2.46400  16.19000  28.14800 
  C  -2.68300  16.32700  29.53700 
  C  -2.10600  17.38300  30.28400 
  H  -0.52600  18.90100  27.70300 
  H  -1.50300  17.10900  26.48800 
  H  -3.30100  15.65900  30.00900 
  H  -1.92400  22.46400  31.50900 
  N  -3.09400  20.56800  30.22500 
  H  -3.68700  21.30600  30.45100 
  H  -3.48400  19.83400  29.72400 
  N  -2.35800  17.45500  31.61900 
  H  -1.96000  18.14200  32.17900 
  H  -2.90200  16.78400  32.06900 
  C   0.52300  22.92400  32.43100 
  C  -3.22700  15.26400  27.38800 
  O  -4.56700  15.36200  27.56500 
  O  -0.18300  24.08000  32.36100 
  C  -1.68200  14.78600  19.67500 
  C  -0.90300  13.66400  19.30700 
  C   0.33000  13.79200  18.62500 
  C   0.79600  15.09900  18.30400 
  C  -0.00300  16.22200  18.61400 
  C  -1.22400  16.06600  19.29100 
  H   0.31500  17.16700  18.38200 
  H  -1.76500  16.90500  19.51800 
  C   2.05600  15.31400  17.68600 
  C   2.06500  15.61300  16.30700 
  C   3.27200  15.64800  15.59200 
  C   4.50100  15.38300  16.23700 
  C   4.49100  15.11700  17.62400 
  C   3.28700  15.09400  18.37000 
  H   1.18700  15.73400  15.79300 
  H   3.22900  15.77800  14.57800 
  H   5.37600  14.90700  18.09500 
  H  -1.21000  12.72800  19.58800 
  N   1.02000  12.66000  18.31100 
  H   0.67600  11.77700  18.53600 
  H   1.85200  12.68700  17.81100 
  N   3.34900  14.83400  19.70500 
  H   2.55500  14.83900  20.26500 
  H   4.20100  14.69000  20.15300 
  C  -2.83500  14.61500  20.49900 
  C   5.68200  15.18000  15.47500 
  O   6.28200  13.97900  15.65800 
  O  -3.49000  13.43100  20.41100 
  C  11.96000  10.28700   7.74000 
  C  11.38200   9.04700   7.37600 
  C  12.11200   8.04500   6.69600 
  C  13.47600   8.30000   6.37200 
  C  14.04400   9.55500   6.67900 
  C  13.29600  10.53400   7.35400 
  H  15.02200   9.75600   6.44600 
  H  13.74900  11.42300   7.58200 
  C  14.29600   7.31800   5.75500 
  C  14.55000   7.45300   4.37300 
  C  15.18900   6.42800   3.66000 
  C  15.58800   5.23700   4.30900 
  C  15.36000   5.11900   5.69800 
  C  14.73300   6.14800   6.44200 
  H  14.20400   8.26700   3.85600 
  H  15.27100   6.52400   2.64500 
  H  15.63100   4.25100   6.17200 
  H  10.41900   8.84100   7.65800 
  N  11.48200   6.87700   6.38700 
  H  10.54700   6.73100   6.61400 
  H  11.92400   6.17000   5.88900 
  N  14.54600   5.97000   7.77900 
  H  14.15100   6.65900   8.33800 
  H  14.85600   5.16400   8.23000 
  C  11.23600  11.19800   8.56600 
  C  16.01800   4.11400   3.55200 
  O  15.27000   2.99800   3.72600 
  O   9.88200  11.16400   8.48400 
  C  17.17200   5.22500  31.61300 
  C  18.53300   5.33700  31.24200 
  C  19.03900   6.46900  30.55900 
  C  18.13900   7.52700  30.24200 
  C  16.76900   7.39900  30.55800 
  C  16.29300   6.26500  31.23500 
  H  16.10900   8.14900  30.32900 
  H  15.29800   6.21600  31.46600 
  C  18.58200   8.72200  29.61800 
  C  18.32900   8.87000  28.23700 
  C  18.90600   9.92400  27.51400 
  C  19.75300  10.85900  28.15200 
  C  19.97800  10.72600  29.54000 
  C  19.39200   9.68000  30.29500 
  H  17.78400   8.16700  27.72800 
  H  18.77300   9.94400  26.50000 
  H  20.60500  11.38900  30.00700 
  H  19.19100   4.60200  31.51900 
  N  20.36300   6.49800  30.24100 
  H  20.95400   5.75800  30.46400 
  H  20.75500   7.23200  29.74100 
  N  19.65000   9.61100  31.62900 
  H  19.24700   8.93100  32.19400 
  H  20.20400  10.27700  32.07300 
  C  16.74600   4.13700  32.43200 
  C  20.52300  11.77200  27.38300 
  O  21.86200  11.69100  27.57000 
  O  17.44200   2.97800  32.33100 
  C  18.96300  12.25100  19.68700 
  C  18.17600  13.37200  19.32900 
  C  16.94300  13.24100  18.64700 
  C  16.48400  11.93400  18.31800 
  C  17.28900  10.81300  18.62200 
  C  18.51000  10.97100  19.29800 
  H  16.97500   9.86700  18.38500 
  H  19.05500  10.13400  19.52000 
  C  15.22800  11.71500  17.69500 
  C  15.22700  11.43200  16.31200 
  C  14.02400  11.39700  15.59200 
  C  12.79000  11.64900  16.23200 
  C  12.79200  11.89800  17.62300 
  C  13.99200  11.92200  18.37500 
  H  16.10800  11.32600  15.80000 
  H  14.07300  11.28500  14.57500 
  H  11.90300  12.09900  18.09200 
  H  18.47900  14.30800  19.61300 
  N  16.24700  14.37100  18.34100 
  H  16.58700  15.25400  18.57100 
  H  15.41400  14.34300  17.84200 
  N  13.92300  12.16900  19.71200 
  H  14.71400  12.16400  20.27500 
  H  13.06800  12.30400  20.15800 
  C  20.11900  12.42200  20.50700 
  C  11.61000  11.85100  15.46800 
  O  11.02800  13.06100  15.64600 
  O  20.76200  13.61300  20.42500 
